!-Generator IDFEditor 1.51
!-Option SortedOrder
!-NOTE: All comments with '!-' are ignored by the IDFEditor and are generated automatically.
!-      Use '!' comments if they need to be retained when using the IDFEditor.
!-   ===========  ALL OBJECTS IN CLASS: VERSION ===========

  Version,23.1;

!-   ===========  ALL OBJECTS IN CLASS: SIMULATIONCONTROL ===========

  SimulationControl,
    Yes,                     !- Do Zone Sizing Calculation
    Yes,                     !- Do System Sizing Calculation
    Yes,                     !- Do Plant Sizing Calculation
    No,                      !- Run Simulation for Sizing Periods
    Yes,                     !- Run Simulation for Weather File Run Periods
    No,                      !- Do HVAC Sizing Simulation for Sizing Periods
    ;                        !- Maximum Number of HVAC Sizing Simulation Passes

!-   ===========  ALL OBJECTS IN CLASS: BUILDING ===========

  Building,
    Building 1,              !- Name
    0,                       !- North Axis {deg}
    City,                    !- Terrain
    ,                        !- Loads Convergence Tolerance Value {W}
    ,                        !- Temperature Convergence Tolerance Value {deltaC}
    FullExteriorWithReflections,  !- Solar Distribution
    ,                        !- Maximum Number of Warmup Days
    ;                        !- Minimum Number of Warmup Days

!-   ===========  ALL OBJECTS IN CLASS: SHADOWCALCULATION ===========

  ShadowCalculation,
    PolygonClipping,         !- Shading Calculation Method
    Periodic,                !- Shading Calculation Update Frequency Method
    30,                      !- Shading Calculation Update Frequency
    15000,                   !- Maximum Figures in Shadow Overlap Calculations
    SutherlandHodgman,       !- Polygon Clipping Algorithm
    512,                     !- Pixel Counting Resolution
    SimpleSkyDiffuseModeling,!- Sky Diffuse Modeling Algorithm
    No,                      !- Output External Shading Calculation Results
    No,                      !- Disable Self-Shading Within Shading Zone Groups
    No;                      !- Disable Self-Shading From Shading Zone Groups to Other Zones

!-   ===========  ALL OBJECTS IN CLASS: HEATBALANCEALGORITHM ===========

  HeatBalanceAlgorithm,ConductionTransferFunction,200;

!-   ===========  ALL OBJECTS IN CLASS: TIMESTEP ===========

  Timestep,6;

!-   ===========  ALL OBJECTS IN CLASS: SITE:LOCATION ===========

  Site:Location,
    Site 1,                  !- Name
    0,                       !- Latitude {deg}
    0,                       !- Longitude {deg}
    0,                       !- Time Zone {hr}
    0;                       !- Elevation {m}

!-   ===========  ALL OBJECTS IN CLASS: SIZINGPERIOD:DESIGNDAY ===========

  SizingPeriod:DesignDay,
    GOTEBORG_ LANDVETTER Cooling Design Day 0.4% Condns DB=>MWB,  !- Name
    7,                       !- Month
    21,                      !- Day of Month
    SummerDesignDay,         !- Day Type
    24.5,                    !- Maximum Dry-Bulb Temperature {C}
    7.7,                     !- Daily Dry-Bulb Temperature Range {deltaC}
    DefaultMultipliers,      !- Dry-Bulb Temperature Range Modifier Type
    ,                        !- Dry-Bulb Temperature Range Modifier Day Schedule Name
    Wetbulb,                 !- Humidity Condition Type
    15.6,                    !- Wetbulb or DewPoint at Maximum Dry-Bulb {C}
    ,                        !- Humidity Condition Day Schedule Name
    ,                        !- Humidity Ratio at Maximum Dry-Bulb {kgWater/kgDryAir}
    ,                        !- Enthalpy at Maximum Dry-Bulb {J/kg}
    ,                        !- Daily Wet-Bulb Temperature Range {deltaC}
    99114,                   !- Barometric Pressure {Pa}
    4.4,                     !- Wind Speed {m/s}
    161,                     !- Wind Direction {deg}
    No,                      !- Rain Indicator
    No,                      !- Snow Indicator
    No,                      !- Daylight Saving Time Indicator
    ASHRAEClearSky,          !- Solar Model Indicator
    ,                        !- Beam Solar Day Schedule Name
    ,                        !- Diffuse Solar Day Schedule Name
    ,                        !- ASHRAE Clear Sky Optical Depth for Beam Irradiance (taub) {dimensionless}
    ,                        !- ASHRAE Clear Sky Optical Depth for Diffuse Irradiance (taud) {dimensionless}
    1,                       !- Sky Clearness
    ,                        !- Maximum Number Warmup Days
    FullResetAtBeginEnvironment;  !- Begin Environment Reset Mode

  SizingPeriod:DesignDay,
    GOTEBORG_ LANDVETTER Heating Design Day 99.6% Condns DB,  !- Name
    1,                       !- Month
    21,                      !- Day of Month
    WinterDesignDay,         !- Day Type
    -10.9,                   !- Maximum Dry-Bulb Temperature {C}
    0,                       !- Daily Dry-Bulb Temperature Range {deltaC}
    DefaultMultipliers,      !- Dry-Bulb Temperature Range Modifier Type
    ,                        !- Dry-Bulb Temperature Range Modifier Day Schedule Name
    Wetbulb,                 !- Humidity Condition Type
    -10.9,                   !- Wetbulb or DewPoint at Maximum Dry-Bulb {C}
    ,                        !- Humidity Condition Day Schedule Name
    ,                        !- Humidity Ratio at Maximum Dry-Bulb {kgWater/kgDryAir}
    ,                        !- Enthalpy at Maximum Dry-Bulb {J/kg}
    ,                        !- Daily Wet-Bulb Temperature Range {deltaC}
    99114,                   !- Barometric Pressure {Pa}
    3.1,                     !- Wind Speed {m/s}
    38,                      !- Wind Direction {deg}
    No,                      !- Rain Indicator
    No,                      !- Snow Indicator
    No,                      !- Daylight Saving Time Indicator
    ASHRAEClearSky,          !- Solar Model Indicator
    ,                        !- Beam Solar Day Schedule Name
    ,                        !- Diffuse Solar Day Schedule Name
    ,                        !- ASHRAE Clear Sky Optical Depth for Beam Irradiance (taub) {dimensionless}
    ,                        !- ASHRAE Clear Sky Optical Depth for Diffuse Irradiance (taud) {dimensionless}
    0,                       !- Sky Clearness
    ,                        !- Maximum Number Warmup Days
    FullResetAtBeginEnvironment;  !- Begin Environment Reset Mode

!-   ===========  ALL OBJECTS IN CLASS: RUNPERIOD ===========

  RunPeriod,
    Run Period 1,            !- Name
    1,                       !- Begin Month
    1,                       !- Begin Day of Month
    2006,                    !- Begin Year
    12,                      !- End Month
    31,                      !- End Day of Month
    2006,                    !- End Year
    Sunday,                  !- Day of Week for Start Day
    No,                      !- Use Weather File Holidays and Special Days
    No,                      !- Use Weather File Daylight Saving Period
    No,                      !- Apply Weekend Holiday Rule
    Yes,                     !- Use Weather File Rain Indicators
    Yes;                     !- Use Weather File Snow Indicators

!-   ===========  ALL OBJECTS IN CLASS: SITE:WATERMAINSTEMPERATURE ===========

  Site:WaterMainsTemperature,
    CorrelationFromWeatherFile;  !- Calculation Method

!-   ===========  ALL OBJECTS IN CLASS: SCHEDULETYPELIMITS ===========

  ScheduleTypeLimits,
    surrounding-office_10_Floor1_Room1 Thermostat Schedule Type Limits,  !- Name
    0,                       !- Lower Limit Value
    4,                       !- Upper Limit Value
    DISCRETE;                !- Numeric Type

  ScheduleTypeLimits,
    Temperature,             !- Name
    -273.15,                 !- Lower Limit Value
    ,                        !- Upper Limit Value
    Continuous,              !- Numeric Type
    temperature;             !- Unit Type

  ScheduleTypeLimits,
    surrounding-office_10_Floor7_Room1 Thermostat Schedule Type Limits,  !- Name
    0,                       !- Lower Limit Value
    4,                       !- Upper Limit Value
    DISCRETE;                !- Numeric Type

  ScheduleTypeLimits,
    surrounding-office_11_Floor1_Room1 Thermostat Schedule Type Limits,  !- Name
    0,                       !- Lower Limit Value
    4,                       !- Upper Limit Value
    DISCRETE;                !- Numeric Type

  ScheduleTypeLimits,
    surrounding-office_11_Floor5_Room1 Thermostat Schedule Type Limits,  !- Name
    0,                       !- Lower Limit Value
    4,                       !- Upper Limit Value
    DISCRETE;                !- Numeric Type

  ScheduleTypeLimits,
    surrounding-office_12_Floor1_Room1 Thermostat Schedule Type Limits,  !- Name
    0,                       !- Lower Limit Value
    4,                       !- Upper Limit Value
    DISCRETE;                !- Numeric Type

  ScheduleTypeLimits,
    surrounding-office_12_Floor5_Room1 Thermostat Schedule Type Limits,  !- Name
    0,                       !- Lower Limit Value
    4,                       !- Upper Limit Value
    DISCRETE;                !- Numeric Type

  ScheduleTypeLimits,
    surrounding-office_13_Floor1_Room1 Thermostat Schedule Type Limits,  !- Name
    0,                       !- Lower Limit Value
    4,                       !- Upper Limit Value
    DISCRETE;                !- Numeric Type

  ScheduleTypeLimits,
    surrounding-office_13_Floor5_Room1 Thermostat Schedule Type Limits,  !- Name
    0,                       !- Lower Limit Value
    4,                       !- Upper Limit Value
    DISCRETE;                !- Numeric Type

  ScheduleTypeLimits,
    surrounding-office_14_Floor1_Room1 Thermostat Schedule Type Limits,  !- Name
    0,                       !- Lower Limit Value
    4,                       !- Upper Limit Value
    DISCRETE;                !- Numeric Type

  ScheduleTypeLimits,
    surrounding-office_14_Floor3_Room1 Thermostat Schedule Type Limits,  !- Name
    0,                       !- Lower Limit Value
    4,                       !- Upper Limit Value
    DISCRETE;                !- Numeric Type

  ScheduleTypeLimits,
    surrounding-office_15_Floor1_Room1 Thermostat Schedule Type Limits,  !- Name
    0,                       !- Lower Limit Value
    4,                       !- Upper Limit Value
    DISCRETE;                !- Numeric Type

  ScheduleTypeLimits,
    surrounding-office_15_Floor3_Room1 Thermostat Schedule Type Limits,  !- Name
    0,                       !- Lower Limit Value
    4,                       !- Upper Limit Value
    DISCRETE;                !- Numeric Type

  ScheduleTypeLimits,
    surrounding-office_16_Floor1_Room1 Thermostat Schedule Type Limits,  !- Name
    0,                       !- Lower Limit Value
    4,                       !- Upper Limit Value
    DISCRETE;                !- Numeric Type

  ScheduleTypeLimits,
    surrounding-office_16_Floor7_Room1 Thermostat Schedule Type Limits,  !- Name
    0,                       !- Lower Limit Value
    4,                       !- Upper Limit Value
    DISCRETE;                !- Numeric Type

  ScheduleTypeLimits,
    surrounding-office_17_Floor1_Room1 Thermostat Schedule Type Limits,  !- Name
    0,                       !- Lower Limit Value
    4,                       !- Upper Limit Value
    DISCRETE;                !- Numeric Type

  ScheduleTypeLimits,
    surrounding-office_17_Floor3_Room1 Thermostat Schedule Type Limits,  !- Name
    0,                       !- Lower Limit Value
    4,                       !- Upper Limit Value
    DISCRETE;                !- Numeric Type

  ScheduleTypeLimits,
    surrounding-office_18_Floor1_Room1 Thermostat Schedule Type Limits,  !- Name
    0,                       !- Lower Limit Value
    4,                       !- Upper Limit Value
    DISCRETE;                !- Numeric Type

  ScheduleTypeLimits,
    surrounding-office_18_Floor3_Room1 Thermostat Schedule Type Limits,  !- Name
    0,                       !- Lower Limit Value
    4,                       !- Upper Limit Value
    DISCRETE;                !- Numeric Type

  ScheduleTypeLimits,
    surrounding-office_19_Floor1_Room1 Thermostat Schedule Type Limits,  !- Name
    0,                       !- Lower Limit Value
    4,                       !- Upper Limit Value
    DISCRETE;                !- Numeric Type

  ScheduleTypeLimits,
    surrounding-office_19_Floor2_Room1 Thermostat Schedule Type Limits,  !- Name
    0,                       !- Lower Limit Value
    4,                       !- Upper Limit Value
    DISCRETE;                !- Numeric Type

  ScheduleTypeLimits,
    surrounding-office_1_Floor1_Room1 Thermostat Schedule Type Limits,  !- Name
    0,                       !- Lower Limit Value
    4,                       !- Upper Limit Value
    DISCRETE;                !- Numeric Type

  ScheduleTypeLimits,
    surrounding-office_1_Floor7_Room1 Thermostat Schedule Type Limits,  !- Name
    0,                       !- Lower Limit Value
    4,                       !- Upper Limit Value
    DISCRETE;                !- Numeric Type

  ScheduleTypeLimits,
    surrounding-office_20_Floor1_Room1 Thermostat Schedule Type Limits,  !- Name
    0,                       !- Lower Limit Value
    4,                       !- Upper Limit Value
    DISCRETE;                !- Numeric Type

  ScheduleTypeLimits,
    surrounding-office_20_Floor3_Room1 Thermostat Schedule Type Limits,  !- Name
    0,                       !- Lower Limit Value
    4,                       !- Upper Limit Value
    DISCRETE;                !- Numeric Type

  ScheduleTypeLimits,
    surrounding-office_21_Floor1_Room1 Thermostat Schedule Type Limits,  !- Name
    0,                       !- Lower Limit Value
    4,                       !- Upper Limit Value
    DISCRETE;                !- Numeric Type

  ScheduleTypeLimits,
    surrounding-office_22_Floor1_Room1 Thermostat Schedule Type Limits,  !- Name
    0,                       !- Lower Limit Value
    4,                       !- Upper Limit Value
    DISCRETE;                !- Numeric Type

  ScheduleTypeLimits,
    surrounding-office_22_Floor3_Room1 Thermostat Schedule Type Limits,  !- Name
    0,                       !- Lower Limit Value
    4,                       !- Upper Limit Value
    DISCRETE;                !- Numeric Type

  ScheduleTypeLimits,
    surrounding-office_23_Floor1_Room1 Thermostat Schedule Type Limits,  !- Name
    0,                       !- Lower Limit Value
    4,                       !- Upper Limit Value
    DISCRETE;                !- Numeric Type

  ScheduleTypeLimits,
    surrounding-office_23_Floor7_Room1 Thermostat Schedule Type Limits,  !- Name
    0,                       !- Lower Limit Value
    4,                       !- Upper Limit Value
    DISCRETE;                !- Numeric Type

  ScheduleTypeLimits,
    surrounding-office_2_Floor1_Room1 Thermostat Schedule Type Limits,  !- Name
    0,                       !- Lower Limit Value
    4,                       !- Upper Limit Value
    DISCRETE;                !- Numeric Type

  ScheduleTypeLimits,
    surrounding-office_2_Floor7_Room1 Thermostat Schedule Type Limits,  !- Name
    0,                       !- Lower Limit Value
    4,                       !- Upper Limit Value
    DISCRETE;                !- Numeric Type

  ScheduleTypeLimits,
    surrounding-office_3_Floor1_Room1 Thermostat Schedule Type Limits,  !- Name
    0,                       !- Lower Limit Value
    4,                       !- Upper Limit Value
    DISCRETE;                !- Numeric Type

  ScheduleTypeLimits,
    surrounding-office_3_Floor7_Room1 Thermostat Schedule Type Limits,  !- Name
    0,                       !- Lower Limit Value
    4,                       !- Upper Limit Value
    DISCRETE;                !- Numeric Type

  ScheduleTypeLimits,
    surrounding-office_4_Floor1_Room1 Thermostat Schedule Type Limits,  !- Name
    0,                       !- Lower Limit Value
    4,                       !- Upper Limit Value
    DISCRETE;                !- Numeric Type

  ScheduleTypeLimits,
    surrounding-office_4_Floor7_Room1 Thermostat Schedule Type Limits,  !- Name
    0,                       !- Lower Limit Value
    4,                       !- Upper Limit Value
    DISCRETE;                !- Numeric Type

  ScheduleTypeLimits,
    surrounding-office_5_Floor1_Room1 Thermostat Schedule Type Limits,  !- Name
    0,                       !- Lower Limit Value
    4,                       !- Upper Limit Value
    DISCRETE;                !- Numeric Type

  ScheduleTypeLimits,
    surrounding-office_5_Floor6_Room1 Thermostat Schedule Type Limits,  !- Name
    0,                       !- Lower Limit Value
    4,                       !- Upper Limit Value
    DISCRETE;                !- Numeric Type

  ScheduleTypeLimits,
    surrounding-office_6_Floor1_Room1 Thermostat Schedule Type Limits,  !- Name
    0,                       !- Lower Limit Value
    4,                       !- Upper Limit Value
    DISCRETE;                !- Numeric Type

  ScheduleTypeLimits,
    surrounding-office_6_Floor7_Room1 Thermostat Schedule Type Limits,  !- Name
    0,                       !- Lower Limit Value
    4,                       !- Upper Limit Value
    DISCRETE;                !- Numeric Type

  ScheduleTypeLimits,
    surrounding-office_7_Floor1_Room1 Thermostat Schedule Type Limits,  !- Name
    0,                       !- Lower Limit Value
    4,                       !- Upper Limit Value
    DISCRETE;                !- Numeric Type

  ScheduleTypeLimits,
    surrounding-office_7_Floor6_Room1 Thermostat Schedule Type Limits,  !- Name
    0,                       !- Lower Limit Value
    4,                       !- Upper Limit Value
    DISCRETE;                !- Numeric Type

  ScheduleTypeLimits,
    surrounding-office_8_Floor1_Room1 Thermostat Schedule Type Limits,  !- Name
    0,                       !- Lower Limit Value
    4,                       !- Upper Limit Value
    DISCRETE;                !- Numeric Type

  ScheduleTypeLimits,
    surrounding-office_8_Floor7_Room1 Thermostat Schedule Type Limits,  !- Name
    0,                       !- Lower Limit Value
    4,                       !- Upper Limit Value
    DISCRETE;                !- Numeric Type

  ScheduleTypeLimits,
    surrounding-office_9_Floor1_Room1 Thermostat Schedule Type Limits,  !- Name
    0,                       !- Lower Limit Value
    4,                       !- Upper Limit Value
    DISCRETE;                !- Numeric Type

  ScheduleTypeLimits,
    surrounding-office_9_Floor7_Room1 Thermostat Schedule Type Limits,  !- Name
    0,                       !- Lower Limit Value
    4,                       !- Upper Limit Value
    DISCRETE;                !- Numeric Type

  ScheduleTypeLimits,
    Activity Level,          !- Name
    0,                       !- Lower Limit Value
    ,                        !- Upper Limit Value
    Continuous,              !- Numeric Type
    activitylevel;           !- Unit Type

  ScheduleTypeLimits,
    Fractional,              !- Name
    0,                       !- Lower Limit Value
    1,                       !- Upper Limit Value
    Continuous,              !- Numeric Type
    dimensionless;           !- Unit Type

  ScheduleTypeLimits,
    OnOff,                   !- Name
    0,                       !- Lower Limit Value
    1,                       !- Upper Limit Value
    Discrete,                !- Numeric Type
    availability;            !- Unit Type

  ScheduleTypeLimits,
    Temperature 1,           !- Name
    ,                        !- Lower Limit Value
    ,                        !- Upper Limit Value
    Continuous,              !- Numeric Type
    temperature;             !- Unit Type

!-   ===========  ALL OBJECTS IN CLASS: SCHEDULE:DAY:INTERVAL ===========

  Schedule:Day:Interval,
    MediumOffice Building_Setpoint_HtgSetp Schedule_Sunday,  !- Name
    Temperature,             !- Schedule Type Limits Name
    No,                      !- Interpolate to Timestep
    24:00,                   !- Time 1
    15.6;                    !- Value Until Time 1

  Schedule:Day:Interval,
    Schedule Day 9,          !- Name
    Temperature,             !- Schedule Type Limits Name
    No,                      !- Interpolate to Timestep
    05:00,                   !- Time 1
    15.6,                    !- Value Until Time 1
    06:00,                   !- Time 2
    17.8,                    !- Value Until Time 2
    07:00,                   !- Time 3
    20,                      !- Value Until Time 3
    22:00,                   !- Time 4
    21,                      !- Value Until Time 4
    24:00,                   !- Time 5
    15.6;                    !- Value Until Time 5

  Schedule:Day:Interval,
    Schedule Day 10,         !- Name
    Temperature,             !- Schedule Type Limits Name
    No,                      !- Interpolate to Timestep
    05:00,                   !- Time 1
    15.6,                    !- Value Until Time 1
    06:00,                   !- Time 2
    17.8,                    !- Value Until Time 2
    07:00,                   !- Time 3
    20,                      !- Value Until Time 3
    17:00,                   !- Time 4
    21,                      !- Value Until Time 4
    24:00,                   !- Time 5
    15.6;                    !- Value Until Time 5

  Schedule:Day:Interval,
    MediumOffice Building_Setpoint_HtgSetp Schedule_SmrDsn 1,  !- Name
    Temperature,             !- Schedule Type Limits Name
    No,                      !- Interpolate to Timestep
    24:00,                   !- Time 1
    15.6;                    !- Value Until Time 1

  Schedule:Day:Interval,
    MediumOffice Building_Setpoint_HtgSetp Schedule_WntrDsn 1,  !- Name
    Temperature,             !- Schedule Type Limits Name
    No,                      !- Interpolate to Timestep
    05:00,                   !- Time 1
    15.6,                    !- Value Until Time 1
    06:00,                   !- Time 2
    17.6,                    !- Value Until Time 2
    07:00,                   !- Time 3
    19.6,                    !- Value Until Time 3
    22:00,                   !- Time 4
    21,                      !- Value Until Time 4
    24:00,                   !- Time 5
    15.6;                    !- Value Until Time 5

  Schedule:Day:Interval,
    MediumOffice Building_Setpoint_HtgSetp Schedule_Hol 1,  !- Name
    Temperature,             !- Schedule Type Limits Name
    No,                      !- Interpolate to Timestep
    24:00,                   !- Time 1
    15.6;                    !- Value Until Time 1

  Schedule:Day:Interval,
    MediumOffice Building_Setpoint_ClgSetp Schedule_Sunday,  !- Name
    Temperature,             !- Schedule Type Limits Name
    No,                      !- Interpolate to Timestep
    24:00,                   !- Time 1
    26.7;                    !- Value Until Time 1

  Schedule:Day:Interval,
    Schedule Day 3,          !- Name
    Temperature,             !- Schedule Type Limits Name
    No,                      !- Interpolate to Timestep
    05:00,                   !- Time 1
    26.7,                    !- Value Until Time 1
    06:00,                   !- Time 2
    25.6,                    !- Value Until Time 2
    07:00,                   !- Time 3
    25,                      !- Value Until Time 3
    22:00,                   !- Time 4
    24,                      !- Value Until Time 4
    24:00,                   !- Time 5
    26.7;                    !- Value Until Time 5

  Schedule:Day:Interval,
    Schedule Day 4,          !- Name
    Temperature,             !- Schedule Type Limits Name
    No,                      !- Interpolate to Timestep
    05:00,                   !- Time 1
    26.7,                    !- Value Until Time 1
    06:00,                   !- Time 2
    25.7,                    !- Value Until Time 2
    07:00,                   !- Time 3
    25,                      !- Value Until Time 3
    17:00,                   !- Time 4
    24,                      !- Value Until Time 4
    24:00,                   !- Time 5
    26.7;                    !- Value Until Time 5

  Schedule:Day:Interval,
    MediumOffice Building_Setpoint_ClgSetp Schedule_SmrDsn 1,  !- Name
    Temperature,             !- Schedule Type Limits Name
    No,                      !- Interpolate to Timestep
    05:00,                   !- Time 1
    26.7,                    !- Value Until Time 1
    06:00,                   !- Time 2
    25.7,                    !- Value Until Time 2
    07:00,                   !- Time 3
    25,                      !- Value Until Time 3
    22:00,                   !- Time 4
    24,                      !- Value Until Time 4
    24:00,                   !- Time 5
    26.7;                    !- Value Until Time 5

  Schedule:Day:Interval,
    MediumOffice Building_Setpoint_ClgSetp Schedule_WntrDsn 1,  !- Name
    Temperature,             !- Schedule Type Limits Name
    No,                      !- Interpolate to Timestep
    24:00,                   !- Time 1
    26.7;                    !- Value Until Time 1

  Schedule:Day:Interval,
    MediumOffice Building_Setpoint_ClgSetp Schedule_Hol 1,  !- Name
    Temperature,             !- Schedule Type Limits Name
    No,                      !- Interpolate to Timestep
    24:00,                   !- Time 1
    26.7;                    !- Value Until Time 1

  Schedule:Day:Interval,
    Always On_Day Schedule,  !- Name
    Fractional,              !- Schedule Type Limits Name
    No,                      !- Interpolate to Timestep
    24:00,                   !- Time 1
    1;                       !- Value Until Time 1

  Schedule:Day:Interval,
    MediumOffice Building_Electric Equipment Schedule_Hol,  !- Name
    Fractional,              !- Schedule Type Limits Name
    No,                      !- Interpolate to Timestep
    06:00,                   !- Time 1
    0.2307553806,            !- Value Until Time 1
    08:00,                   !- Time 2
    0.381234796,             !- Value Until Time 2
    12:00,                   !- Time 3
    0.476543495,             !- Value Until Time 3
    17:00,                   !- Time 4
    0.3335804465,            !- Value Until Time 4
    19:00,                   !- Time 5
    0.285926097,             !- Value Until Time 5
    24:00,                   !- Time 6
    0.2307553806;            !- Value Until Time 6

  Schedule:Day:Interval,
    MediumOffice Building_Electric Equipment Schedule_Hol 1,  !- Name
    Fractional,              !- Schedule Type Limits Name
    No,                      !- Interpolate to Timestep
    06:00,                   !- Time 1
    0.2307553806,            !- Value Until Time 1
    08:00,                   !- Time 2
    0.381234796,             !- Value Until Time 2
    12:00,                   !- Time 3
    0.476543495,             !- Value Until Time 3
    17:00,                   !- Time 4
    0.3335804465,            !- Value Until Time 4
    19:00,                   !- Time 5
    0.285926097,             !- Value Until Time 5
    24:00,                   !- Time 6
    0.2307553806;            !- Value Until Time 6

  Schedule:Day:Interval,
    MediumOffice Building_Electric Equipment Schedule_Monday,  !- Name
    Fractional,              !- Schedule Type Limits Name
    No,                      !- Interpolate to Timestep
    06:00,                   !- Time 1
    0.3076738408,            !- Value Until Time 1
    08:00,                   !- Time 2
    0.381234796,             !- Value Until Time 2
    12:00,                   !- Time 3
    0.857778291,             !- Value Until Time 3
    13:00,                   !- Time 4
    0.762469592,             !- Value Until Time 4
    17:00,                   !- Time 5
    0.857778291,             !- Value Until Time 5
    18:00,                   !- Time 6
    0.476543495,             !- Value Until Time 6
    24:00,                   !- Time 7
    0.381234796;             !- Value Until Time 7

  Schedule:Day:Interval,
    MediumOffice Building_Electric Equipment Schedule_Saturday,  !- Name
    Fractional,              !- Schedule Type Limits Name
    No,                      !- Interpolate to Timestep
    06:00,                   !- Time 1
    0.2307553806,            !- Value Until Time 1
    08:00,                   !- Time 2
    0.381234796,             !- Value Until Time 2
    12:00,                   !- Time 3
    0.476543495,             !- Value Until Time 3
    17:00,                   !- Time 4
    0.3335804465,            !- Value Until Time 4
    19:00,                   !- Time 5
    0.285926097,             !- Value Until Time 5
    24:00,                   !- Time 6
    0.2307553806;            !- Value Until Time 6

  Schedule:Day:Interval,
    MediumOffice Building_Electric Equipment Schedule_SmrDsn,  !- Name
    Fractional,              !- Schedule Type Limits Name
    No,                      !- Interpolate to Timestep
    24:00,                   !- Time 1
    1;                       !- Value Until Time 1

  Schedule:Day:Interval,
    MediumOffice Building_Electric Equipment Schedule_SmrDsn 1,  !- Name
    Fractional,              !- Schedule Type Limits Name
    No,                      !- Interpolate to Timestep
    24:00,                   !- Time 1
    1;                       !- Value Until Time 1

  Schedule:Day:Interval,
    MediumOffice Building_Electric Equipment Schedule_Sunday,  !- Name
    Fractional,              !- Schedule Type Limits Name
    No,                      !- Interpolate to Timestep
    06:00,                   !- Time 1
    0.2307553806,            !- Value Until Time 1
    18:00,                   !- Time 2
    0.288107175,             !- Value Until Time 2
    24:00,                   !- Time 3