
Version,
  22.2;                                   !- Version Identifier

Timestep,
  6;                                      !- Number of Timesteps per Hour

LifeCycleCost:Parameters,
  Life Cycle Cost Parameters,             !- Name
  EndOfYear,                              !- Discounting Convention
  ConstantDollar,                         !- Inflation Approach
  0.03,                                   !- Real Discount Rate
  ,                                       !- Nominal Discount Rate
  ,                                       !- Inflation
  ,                                       !- Base Date Month
  2011,                                   !- Base Date Year
  ,                                       !- Service Date Month
  2011,                                   !- Service Date Year
  25,                                     !- Length of Study Period in Years
  ,                                       !- Tax rate
  None;                                   !- Depreciation Method

LifeCycleCost:UsePriceEscalation,
  U.S. Avg  Commercial-Electricity,       !- Name
  Electricity,                            !- Resource
  2011,                                   !- Escalation Start Year
  January,                                !- Escalation Start Month
  0.9838,                                 !- Year Escalation 1
  0.9730,                                 !- Year Escalation 2
  0.9632,                                 !- Year Escalation 3
  0.9611,                                 !- Year Escalation 4
  0.9571,                                 !- Year Escalation 5
  0.9553,                                 !- Year Escalation 6
  0.9539,                                 !- Year Escalation 7
  0.9521,                                 !- Year Escalation 8
  0.9546,                                 !- Year Escalation 9
  0.9550,                                 !- Year Escalation 10
  0.9553,                                 !- Year Escalation 11
  0.9564,                                 !- Year Escalation 12
  0.9575,                                 !- Year Escalation 13
  0.9596,                                 !- Year Escalation 14
  0.9618,                                 !- Year Escalation 15
  0.9614,                                 !- Year Escalation 16
  0.9618,                                 !- Year Escalation 17
  0.9618,                                 !- Year Escalation 18
  0.9593,                                 !- Year Escalation 19
  0.9589,                                 !- Year Escalation 20
  0.9607,                                 !- Year Escalation 21
  0.9625,                                 !- Year Escalation 22
  0.9650,                                 !- Year Escalation 23
  0.9708,                                 !- Year Escalation 24
  0.9751,                                 !- Year Escalation 25
  0.9762,                                 !- Year Escalation 26
  0.9766,                                 !- Year Escalation 27
  0.9766,                                 !- Year Escalation 28
  0.9769,                                 !- Year Escalation 29
  0.9773;                                 !- Year Escalation 30

LifeCycleCost:UsePriceEscalation,
  U.S. Avg  Commercial-Distillate Oil,    !- Name
  FuelOilNo1,                             !- Resource
  2011,                                   !- Escalation Start Year
  January,                                !- Escalation Start Month
  0.9714,                                 !- Year Escalation 1
  0.9730,                                 !- Year Escalation 2
  0.9942,                                 !- Year Escalation 3
  1.0164,                                 !- Year Escalation 4
  1.0541,                                 !- Year Escalation 5
  1.0928,                                 !- Year Escalation 6
  1.1267,                                 !- Year Escalation 7
  1.1580,                                 !- Year Escalation 8
  1.1792,                                 !- Year Escalation 9
  1.1967,                                 !- Year Escalation 10
  1.2200,                                 !- Year Escalation 11
  1.2333,                                 !- Year Escalation 12
  1.2566,                                 !- Year Escalation 13
  1.2709,                                 !- Year Escalation 14
  1.2826,                                 !- Year Escalation 15
  1.2985,                                 !- Year Escalation 16
  1.3102,                                 !- Year Escalation 17
  1.3250,                                 !- Year Escalation 18
  1.3261,                                 !- Year Escalation 19
  1.3282,                                 !- Year Escalation 20
  1.3324,                                 !- Year Escalation 21
  1.3356,                                 !- Year Escalation 22
  1.3431,                                 !- Year Escalation 23
  1.3510,                                 !- Year Escalation 24
  1.3568,                                 !- Year Escalation 25
  1.3606,                                 !- Year Escalation 26
  1.3637,                                 !- Year Escalation 27
  1.3674,                                 !- Year Escalation 28
  1.3706,                                 !- Year Escalation 29
  1.3743;                                 !- Year Escalation 30

LifeCycleCost:UsePriceEscalation,
  U.S. Avg  Commercial-Residual Oil,      !- Name
  FuelOilNo2,                             !- Resource
  2011,                                   !- Escalation Start Year
  January,                                !- Escalation Start Month
  0.8469,                                 !- Year Escalation 1
  0.8257,                                 !- Year Escalation 2
  0.8681,                                 !- Year Escalation 3
  0.8988,                                 !- Year Escalation 4
  0.9289,                                 !- Year Escalation 5
  0.9604,                                 !- Year Escalation 6
  0.9897,                                 !- Year Escalation 7
  1.0075,                                 !- Year Escalation 8
  1.0314,                                 !- Year Escalation 9
  1.0554,                                 !- Year Escalation 10
  1.0861,                                 !- Year Escalation 11
  1.1278,                                 !- Year Escalation 12
  1.1497,                                 !- Year Escalation 13
  1.1620,                                 !- Year Escalation 14
  1.1743,                                 !- Year Escalation 15
  1.1852,                                 !- Year Escalation 16
  1.1948,                                 !- Year Escalation 17
  1.2037,                                 !- Year Escalation 18
  1.2071,                                 !- Year Escalation 19
  1.2119,                                 !- Year Escalation 20
  1.2139,                                 !- Year Escalation 21
  1.2194,                                 !- Year Escalation 22
  1.2276,                                 !- Year Escalation 23
  1.2365,                                 !- Year Escalation 24
  1.2420,                                 !- Year Escalation 25
  1.2461,                                 !- Year Escalation 26
  1.2509,                                 !- Year Escalation 27
  1.2550,                                 !- Year Escalation 28
  1.2591,                                 !- Year Escalation 29
  1.2638;                                 !- Year Escalation 30

LifeCycleCost:UsePriceEscalation,
  U.S. Avg  Commercial-Natural gas,       !- Name
  NaturalGas,                             !- Resource
  2011,                                   !- Escalation Start Year
  January,                                !- Escalation Start Month
  0.9823,                                 !- Year Escalation 1
  0.9557,                                 !- Year Escalation 2
  0.9279,                                 !- Year Escalation 3
  0.9257,                                 !- Year Escalation 4
  0.9346,                                 !- Year Escalation 5
  0.9412,                                 !- Year Escalation 6
  0.9512,                                 !- Year Escalation 7
  0.9645,                                 !- Year Escalation 8
  0.9856,                                 !- Year Escalation 9
  1.0067,                                 !- Year Escalation 10
  1.0222,                                 !- Year Escalation 11
  1.0410,                                 !- Year Escalation 12
  1.0610,                                 !- Year Escalation 13
  1.0787,                                 !- Year Escalation 14
  1.0942,                                 !- Year Escalation 15
  1.1098,                                 !- Year Escalation 16
  1.1220,                                 !- Year Escalation 17
  1.1308,                                 !- Year Escalation 18
  1.1386,                                 !- Year Escalation 19
  1.1486,                                 !- Year Escalation 20
  1.1619,                                 !- Year Escalation 21
  1.1763,                                 !- Year Escalation 22
  1.1918,                                 !- Year Escalation 23
  1.2118,                                 !- Year Escalation 24
  1.2284,                                 !- Year Escalation 25
  1.2439,                                 !- Year Escalation 26
  1.2605,                                 !- Year Escalation 27
  1.2772,                                 !- Year Escalation 28
  1.2938,                                 !- Year Escalation 29
  1.3115;                                 !- Year Escalation 30

LifeCycleCost:UsePriceEscalation,
  U.S. Avg  Commercial-Coal,              !- Name
  Coal,                                   !- Resource
  2011,                                   !- Escalation Start Year
  January,                                !- Escalation Start Month
  0.9970,                                 !- Year Escalation 1
  1.0089,                                 !- Year Escalation 2
  1.0089,                                 !- Year Escalation 3
  0.9941,                                 !- Year Escalation 4
  0.9941,                                 !- Year Escalation 5
  1.0000,                                 !- Year Escalation 6
  1.0030,                                 !- Year Escalation 7
  1.0059,                                 !- Year Escalation 8
  1.0089,                                 !- Year Escalation 9
  1.0119,                                 !- Year Escalation 10
  1.0148,                                 !- Year Escalation 11
  1.0178,                                 !- Year Escalation 12
  1.0208,                                 !- Year Escalation 13
  1.0267,                                 !- Year Escalation 14
  1.0297,                                 !- Year Escalation 15
  1.0356,                                 !- Year Escalation 16
  1.0415,                                 !- Year Escalation 17
  1.0534,                                 !- Year Escalation 18
  1.0564,                                 !- Year Escalation 19
  1.0593,                                 !- Year Escalation 20
  1.0653,                                 !- Year Escalation 21
  1.0712,                                 !- Year Escalation 22
  1.0742,                                 !- Year Escalation 23
  1.0801,                                 !- Year Escalation 24
  1.0831,                                 !- Year Escalation 25
  1.0831,                                 !- Year Escalation 26
  1.0861,                                 !- Year Escalation 27
  1.0890,                                 !- Year Escalation 28
  1.0920,                                 !- Year Escalation 29
  1.0950;                                 !- Year Escalation 30

Building,
  Parametric_sim,                         !- Name
  0,                                      !- North Axis {deg}
  City,                                   !- Terrain
  ,                                       !- Loads Convergence Tolerance Value {W}
  ,                                       !- Temperature Convergence Tolerance Value {deltaC}
  FullExteriorWithReflections,            !- Solar Distribution
  ,                                       !- Maximum Number of Warmup Days
  ;                                       !- Minimum Number of Warmup Days

Shading:Building:Detailed,
  Shade_0037e7bb,                         !- Name
  ,                                       !- Transmittance Schedule Name
  ,                                       !- Number of Vertices
  14, 31.23854375, 8.4,                   !- X,Y,Z Vertex 1 {m}
  14, 31.23854375, 7.4,                   !- X,Y,Z Vertex 2 {m}
  14.45, 31.23854375, 7.4,                !- X,Y,Z Vertex 3 {m}
  14.45, 31.23854375, 8.4;                !- X,Y,Z Vertex 4 {m}

Shading:Building:Detailed,
  Shade_01966900,                         !- Name
  ,                                       !- Transmittance Schedule Name
  ,                                       !- Number of Vertices
  14.45, 27.05141875, 8.4,                !- X,Y,Z Vertex 1 {m}
  14.45, 26.63270625, 8.4,                !- X,Y,Z Vertex 2 {m}
  14, 26.63270625, 8.4,                   !- X,Y,Z Vertex 3 {m}
  14, 27.05141875, 8.4;                   !- X,Y,Z Vertex 4 {m}

Shading:Building:Detailed,
  Shade_01a56016,                         !- Name
  ,                                       !- Transmittance Schedule Name
  ,                                       !- Number of Vertices
  40.4710909090909, 8.45, 2.4,            !- X,Y,Z Vertex 1 {m}
  40.4710909090909, 8, 2.4,               !- X,Y,Z Vertex 2 {m}
  38.8907272727273, 8, 2.4,               !- X,Y,Z Vertex 3 {m}
  38.8907272727273, 8.45, 2.4;            !- X,Y,Z Vertex 4 {m}

Shading:Building:Detailed,
  Shade_01c322bc,                         !- Name
  ,                                       !- Transmittance Schedule Name
  ,                                       !- Number of Vertices
  14.45, 18.67716875, 2.4,                !- X,Y,Z Vertex 1 {m}
  14.45, 18.25845625, 2.4,                !- X,Y,Z Vertex 2 {m}
  14, 18.25845625, 2.4,                   !- X,Y,Z Vertex 3 {m}
  14, 18.67716875, 2.4;                   !- X,Y,Z Vertex 4 {m}

Shading:Building:Detailed,
  Shade_02268a64,                         !- Name
  ,                                       !- Transmittance Schedule Name
  ,                                       !- Number of Vertices
  36.1177142857143, 0, 8.4,               !- X,Y,Z Vertex 1 {m}
  36.1177142857143, -0.45, 8.4,           !- X,Y,Z Vertex 2 {m}
  33.6551428571429, -0.45, 8.4,           !- X,Y,Z Vertex 3 {m}
  33.6551428571429, 0, 8.4;               !- X,Y,Z Vertex 4 {m}

Shading:Building:Detailed,
  Shade_037e79b2,                         !- Name
  ,                                       !- Transmittance Schedule Name
  ,                                       !- Number of Vertices
  32.0134285714286, 0, 8.4,               !- X,Y,Z Vertex 1 {m}
  32.0134285714286, 0, 7.4,               !- X,Y,Z Vertex 2 {m}
  32.0134285714286, -0.45, 7.4,           !- X,Y,Z Vertex 3 {m}
  32.0134285714286, -0.45, 8.4;           !- X,Y,Z Vertex 4 {m}

Shading:Building:Detailed,
  Shade_03cedfea,                         !- Name
  ,                                       !- Transmittance Schedule Name
  ,                                       !- Number of Vertices
  23.0870909090909, 8, 5.4,               !- X,Y,Z Vertex 1 {m}
  23.0870909090909, 8, 4.4,               !- X,Y,Z Vertex 2 {m}
  23.0870909090909, 8.45, 4.4,            !- X,Y,Z Vertex 3 {m}
  23.0870909090909, 8.45, 5.4;            !- X,Y,Z Vertex 4 {m}

Shading:Building:Detailed,
  Shade_04ecaebb,                         !- Name
  ,                                       !- Transmittance Schedule Name
  ,                                       !- Number of Vertices
  9.02942857142858, -0.45, 5.4,           !- X,Y,Z Vertex 1 {m}
  9.02942857142858, -0.45, 4.4,           !- X,Y,Z Vertex 2 {m}
  9.02942857142858, 0, 4.4,               !- X,Y,Z Vertex 3 {m}
  9.02942857142858, 0, 5.4;               !- X,Y,Z Vertex 4 {m}

Shading:Building:Detailed,
  Shade_04f15a32,                         !- Name
  ,                                       !- Transmittance Schedule Name
  ,                                       !- Number of Vertices
  14, 31.23854375, 5.4,                   !- X,Y,Z Vertex 1 {m}
  14, 31.23854375, 4.4,                   !- X,Y,Z Vertex 2 {m}
  14.45, 31.23854375, 4.4,                !- X,Y,Z Vertex 3 {m}
  14.45, 31.23854375, 5.4;                !- X,Y,Z Vertex 4 {m}

Shading:Building:Detailed,
  Shade_050536f2,                         !- Name
  ,                                       !- Transmittance Schedule Name
  ,                                       !- Number of Vertices
  14.45, 22.86429375, 2.4,                !- X,Y,Z Vertex 1 {m}
  14.45, 22.44558125, 2.4,                !- X,Y,Z Vertex 2 {m}
  14, 22.44558125, 2.4,                   !- X,Y,Z Vertex 3 {m}
  14, 22.86429375, 2.4;                   !- X,Y,Z Vertex 4 {m}

Shading:Building:Detailed,
  Shade_055e1f2e,                         !- Name
  ,                                       !- Transmittance Schedule Name
  ,                                       !- Number of Vertices
  44.3262857142857, 0, 2.4,               !- X,Y,Z Vertex 1 {m}
  44.3262857142857, -0.45, 2.4,           !- X,Y,Z Vertex 2 {m}
  41.8637142857143, -0.45, 2.4,           !- X,Y,Z Vertex 3 {m}
  41.8637142857143, 0, 2.4;               !- X,Y,Z Vertex 4 {m}

Shading:Building:Detailed,
  Shade_07b7739e,                         !- Name
  ,                                       !- Transmittance Schedule Name
  ,                                       !- Number of Vertices
  14, 14.49004375, 8.4,                   !- X,Y,Z Vertex 1 {m}
  14, 14.49004375, 7.4,                   !- X,Y,Z Vertex 2 {m}
  14.45, 14.49004375, 7.4,                !- X,Y,Z Vertex 3 {m}
  14.45, 14.49004375, 8.4;                !- X,Y,Z Vertex 4 {m}

Shading:Building:Detailed,
  Shade_07c23e47,                         !- Name
  ,                                       !- Transmittance Schedule Name
  ,                                       !- Number of Vertices
  48.4305714285714, 0, 2.4,               !- X,Y,Z Vertex 1 {m}
  48.4305714285714, 0, 1.4,               !- X,Y,Z Vertex 2 {m}
  48.4305714285714, -0.45, 1.4,           !- X,Y,Z Vertex 3 {m}
  48.4305714285714, -0.45, 2.4;           !- X,Y,Z Vertex 4 {m}

Shading:Building:Detailed,
  Shade_07d90594,                         !- Name
  ,                                       !- Transmittance Schedule Name
  ,                                       !- Number of Vertices
  0, 3.527245, 5.4,                       !- X,Y,Z Vertex 1 {m}
  0, 0.622455, 5.4,                       !- X,Y,Z Vertex 2 {m}
  -0.45, 0.622455, 5.4,                   !- X,Y,Z Vertex 3 {m}
  -0.45, 3.527245, 5.4;                   !- X,Y,Z Vertex 4 {m}

Shading:Building:Detailed,
  Shade_085d1c85,                         !- Name
  ,                                       !- Transmittance Schedule Name
  ,                                       !- Number of Vertices
  0, 0.622455, 5.4,                       !- X,Y,Z Vertex 1 {m}
  0, 0.622455, 4.4,                       !- X,Y,Z Vertex 2 {m}
  -0.45, 0.622455, 4.4,                   !- X,Y,Z Vertex 3 {m}
  -0.45, 0.622455, 5.4;                   !- X,Y,Z Vertex 4 {m}

Shading:Building:Detailed,
  Shade_087063d5,                         !- Name
  ,                                       !- Transmittance Schedule Name
  ,                                       !- Number of Vertices
  44.422, 8.45, 5.4,                      !- X,Y,Z Vertex 1 {m}
  44.422, 8, 5.4,                         !- X,Y,Z Vertex 2 {m}
  42.8416363636364, 8, 5.4,               !- X,Y,Z Vertex 3 {m}
  42.8416363636364, 8.45, 5.4;            !- X,Y,Z Vertex 4 {m}

Shading:Building:Detailed,
  Shade_08d11129,                         !- Name
  ,                                       !- Transmittance Schedule Name
  ,                                       !- Number of Vertices
  57.46, 6.2, 5.4,                        !- X,Y,Z Vertex 1 {m}
  57.46, 6.2, 4.4,                        !- X,Y,Z Vertex 2 {m}
  57.91, 6.2, 4.4,                        !- X,Y,Z Vertex 3 {m}
  57.91, 6.2, 5.4;                        !- X,Y,Z Vertex 4 {m}

Shading:Building:Detailed,
  Shade_09f4b147,                         !- Name
  ,                                       !- Transmittance Schedule Name
  ,                                       !- Number of Vertices
  14, 35.42566875, 2.4,                   !- X,Y,Z Vertex 1 {m}
  14, 35.42566875, 1.4,                   !- X,Y,Z Vertex 2 {m}
  14.45, 35.42566875, 1.4,                !- X,Y,Z Vertex 3 {m}
  14.45, 35.42566875, 2.4;                !- X,Y,Z Vertex 4 {m}

Shading:Building:Detailed,
  Shade_0b6c2658,                         !- Name
  ,                                       !- Transmittance Schedule Name
  ,                                       !- Number of Vertices
  5.95, 41.947, 2.4,                      !- X,Y,Z Vertex 1 {m}
  5.95, 41.497, 2.4,                      !- X,Y,Z Vertex 2 {m}
  4.55, 41.497, 2.4,                      !- X,Y,Z Vertex 3 {m}
  4.55, 41.947, 2.4;                      !- X,Y,Z Vertex 4 {m}

Shading:Building:Detailed,
  Shade_0dc39b4a,                         !- Name
  ,                                       !- Transmittance Schedule Name
  ,                                       !- Number of Vertices
  8.05, 41.497, 5.4,                      !- X,Y,Z Vertex 1 {m}
  8.05, 41.497, 4.4,                      !- X,Y,Z Vertex 2 {m}
  8.05, 41.947, 4.4,                      !- X,Y,Z Vertex 3 {m}
  8.05, 41.947, 5.4;                      !- X,Y,Z Vertex 4 {m}

Shading:Building:Detailed,
  Shade_0df7b20d,                         !- Name
  ,                                       !- Transmittance Schedule Name
  ,                                       !- Number of Vertices
  57.46, 2.2, 5.4,                        !- X,Y,Z Vertex 1 {m}
  57.46, 2.2, 4.4,                        !- X,Y,Z Vertex 2 {m}
  57.91, 2.2, 4.4,                        !- X,Y,Z Vertex 3 {m}
  57.91, 2.2, 5.4;                        !- X,Y,Z Vertex 4 {m}

Shading:Building:Detailed,
  Shade_0e328844,                         !- Name
  ,                                       !- Transmittance Schedule Name
  ,                                       !- Number of Vertices
  38.8907272727273, 8, 5.4,               !- X,Y,Z Vertex 1 {m}
  38.8907272727273, 8, 4.4,               !- X,Y,Z Vertex 2 {m}
  38.8907272727273, 8.45, 4.4,            !- X,Y,Z Vertex 3 {m}
  38.8907272727273, 8.45, 5.4;            !- X,Y,Z Vertex 4 {m}

Shading:Building:Detailed,
  Shade_0e355fe1,                         !- Name
  ,                                       !- Transmittance Schedule Name
  ,                                       !- Number of Vertices
  0, 24.275745, 2.4,                      !- X,Y,Z Vertex 1 {m}
  0, 21.370955, 2.4,                      !- X,Y,Z Vertex 2 {m}
  -0.45, 21.370955, 2.4,                  !- X,Y,Z Vertex 3 {m}
  -0.45, 24.275745, 2.4;                  !- X,Y,Z Vertex 4 {m}

Shading:Building:Detailed,
  Shade_0e3b4ef2,                         !- Name
  ,                                       !- Transmittance Schedule Name
  ,                                       !- Number of Vertices
  14.45, 39.19408125, 8.4,                !- X,Y,Z Vertex 1 {m}
  14.45, 39.19408125, 7.4,                !- X,Y,Z Vertex 2 {m}
  14, 39.19408125, 7.4,                   !- X,Y,Z Vertex 3 {m}
  14, 39.19408125, 8.4;                   !- X,Y,Z Vertex 4 {m}

Shading:Building:Detailed,
  Shade_0ed4d324,                         !- Name
  ,                                       !- Transmittance Schedule Name
  ,                                       !- Number of Vertices
  -0.45, 32.575145, 8.4,                  !- X,Y,Z Vertex 1 {m}
  -0.45, 32.575145, 7.4,                  !- X,Y,Z Vertex 2 {m}
  0, 32.575145, 7.4,                      !- X,Y,Z Vertex 3 {m}
  0, 32.575145, 8.4;                      !- X,Y,Z Vertex 4 {m}

Shading:Building:Detailed,
  Shade_0f0149eb,                         !- Name
  ,                                       !- Transmittance Schedule Name
  ,                                       !- Number of Vertices
  33.6551428571429, -0.45, 8.4,           !- X,Y,Z Vertex 1 {m}
  33.6551428571429, -0.45, 7.4,           !- X,Y,Z Vertex 2 {m}
  33.6551428571429, 0, 7.4,               !- X,Y,Z Vertex 3 {m}
  33.6551428571429, 0, 8.4;               !- X,Y,Z Vertex 4 {m}

Shading:Building:Detailed,
  Shade_0fc0b7e7,                         !- Name
  ,                                       !- Transmittance Schedule Name
  ,                                       !- Number of Vertices
  36.1177142857143, 0, 2.4,               !- X,Y,Z Vertex 1 {m}
  36.1177142857143, -0.45, 2.4,           !- X,Y,Z Vertex 2 {m}
  33.6551428571429, -0.45, 2.4,           !- X,Y,Z Vertex 3 {m}
  33.6551428571429, 0, 2.4;               !- X,Y,Z Vertex 4 {m}

Shading:Building:Detailed,
  Shade_0fd55beb,                         !- Name
  ,                                       !- Transmittance Schedule Name
  ,                                       !- Number of Vertices
  15.5962857142857, 0, 5.4,               !- X,Y,Z Vertex 1 {m}
  15.5962857142857, 0, 4.4,               !- X,Y,Z Vertex 2 {m}
  15.5962857142857, -0.45, 4.4,           !- X,Y,Z Vertex 3 {m}
  15.5962857142857, -0.45, 5.4;           !- X,Y,Z Vertex 4 {m}

Shading:Building:Detailed,
  Shade_10172af7,                         !- Name
  ,                                       !- Transmittance Schedule Name
  ,                                       !- Number of Vertices
  0, 15.976345, 2.4,                      !- X,Y,Z Vertex 1 {m}
  0, 13.071555, 2.4,                      !- X,Y,Z Vertex 2 {m}
  -0.45, 13.071555, 2.4,                  !- X,Y,Z Vertex 3 {m}
  -0.45, 15.976345, 2.4;                  !- X,Y,Z Vertex 4 {m}

Shading:Building:Detailed,
  Shade_106e763f,                         !- Name
  ,                                       !- Transmittance Schedule Name
  ,                                       !- Number of Vertices
  54.6943636363636, 8, 5.4,               !- X,Y,Z Vertex 1 {m}
  54.6943636363636, 8, 4.4,               !- X,Y,Z Vertex 2 {m}
  54.6943636363636, 8.45, 4.4,            !- X,Y,Z Vertex 3 {m}
  54.6943636363636, 8.45, 5.4;            !- X,Y,Z Vertex 4 {m}

Shading:Building:Detailed,
  Shade_1210acff,                         !- Name
  ,                                       !- Transmittance Schedule Name
  ,                                       !- Number of Vertices
  -0.45, 20.126045, 8.4,                  !- X,Y,Z Vertex 1 {m}
  -0.45, 20.126045, 7.4,                  !- X,Y,Z Vertex 2 {m}
  0, 20.126045, 7.4,                      !- X,Y,Z Vertex 3 {m}
  0, 20.126045, 8.4;                      !- X,Y,Z Vertex 4 {m}

Shading:Building:Detailed,
  Shade_123b3893,                         !- Name
  ,                                       !- Transmittance Schedule Name
  ,                                       !- Number of Vertices
  48.3729090909091, 8.45, 8.4,            !- X,Y,Z Vertex 1 {m}
  48.3729090909091, 8.45, 7.4,            !- X,Y,Z Vertex 2 {m}
  48.3729090909091, 8, 7.4,               !- X,Y,Z Vertex 3 {m}
  48.3729090909091, 8, 8.4;               !- X,Y,Z Vertex 4 {m}

Shading:Building:Detailed,
  Shade_1318aa9c,                         !- Name
  ,                                       !- Transmittance Schedule Name
  ,                                       !- Number of Vertices
  23.8048571428572, 0, 5.4,               !- X,Y,Z Vertex 1 {m}
  23.8048571428572, 0, 4.4,               !- X,Y,Z Vertex 2 {m}
  23.8048571428572, -0.45, 4.4,           !- X,Y,Z Vertex 3 {m}
  23.8048571428572, -0.45, 5.4;           !- X,Y,Z Vertex 4 {m}

Shading:Building:Detailed,
  Shade_1352e4e5,                         !- Name
  ,                                       !- Transmittance Schedule Name
  ,                                       !- Number of Vertices
  15.5962857142857, 0, 2.4,               !- X,Y,Z Vertex 1 {m}
  15.5962857142857, -0.45, 2.4,           !- X,Y,Z Vertex 2 {m}
  13.1337142857143, -0.45, 2.4,           !- X,Y,Z Vertex 3 {m}
  13.1337142857143, 0, 2.4;               !- X,Y,Z Vertex 4 {m}

Shading:Building:Detailed,
  Shade_1368f40c,                         !- Name
  ,                                       !- Transmittance Schedule Name
  ,                                       !- Number of Vertices
  30.9889090909091, 8, 5.4,               !- X,Y,Z Vertex 1 {m}
  30.9889090909091, 8, 4.4,               !- X,Y,Z Vertex 2 {m}
  30.9889090909091, 8.45, 4.4,            !- X,Y,Z Vertex 3 {m}
  30.9889090909091, 8.45, 5.4;            !- X,Y,Z Vertex 4 {m}

Shading:Building:Detailed,
  Shade_13f257ab,                         !- Name
  ,                                       !- Transmittance Schedule Name
  ,                                       !- Number of Vertices
  4.55, 41.497, 2.4,                      !- X,Y,Z Vertex 1 {m}
  4.55, 41.497, 1.4,                      !- X,Y,Z Vertex 2 {m}
  4.55, 41.947, 1.4,                      !- X,Y,Z Vertex 3 {m}
  4.55, 41.947, 2.4;                      !- X,Y,Z Vertex 4 {m}

Shading:Building:Detailed,
  Shade_1476bad5,                         !- Name
  ,                                       !- Transmittance Schedule Name
  ,                                       !- Number of Vertices
  50.0722857142857, -0.45, 5.4,           !- X,Y,Z Vertex 1 {m}
  50.0722857142857, -0.45, 4.4,           !- X,Y,Z Vertex 2 {m}
  50.0722857142857, 0, 4.4,               !- X,Y,Z Vertex 3 {m}
  50.0722857142857, 0, 5.4;               !- X,Y,Z Vertex 4 {m}

Shading:Building:Detailed,
  Shade_1516a6c5,                         !- Name