
Version,
  22.2;                                   !- Version Identifier

Timestep,
  6;                                      !- Number of Timesteps per Hour

LifeCycleCost:Parameters,
  Life Cycle Cost Parameters,             !- Name
  EndOfYear,                              !- Discounting Convention
  ConstantDollar,                         !- Inflation Approach
  0.03,                                   !- Real Discount Rate
  ,                                       !- Nominal Discount Rate
  ,                                       !- Inflation
  ,                                       !- Base Date Month
  2011,                                   !- Base Date Year
  ,                                       !- Service Date Month
  2011,                                   !- Service Date Year
  25,                                     !- Length of Study Period in Years
  ,                                       !- Tax rate
  None;                                   !- Depreciation Method

LifeCycleCost:UsePriceEscalation,
  U.S. Avg  Commercial-Electricity,       !- Name
  Electricity,                            !- Resource
  2011,                                   !- Escalation Start Year
  January,                                !- Escalation Start Month
  0.9838,                                 !- Year Escalation 1
  0.9730,                                 !- Year Escalation 2
  0.9632,                                 !- Year Escalation 3
  0.9611,                                 !- Year Escalation 4
  0.9571,                                 !- Year Escalation 5
  0.9553,                                 !- Year Escalation 6
  0.9539,                                 !- Year Escalation 7
  0.9521,                                 !- Year Escalation 8
  0.9546,                                 !- Year Escalation 9
  0.9550,                                 !- Year Escalation 10
  0.9553,                                 !- Year Escalation 11
  0.9564,                                 !- Year Escalation 12
  0.9575,                                 !- Year Escalation 13
  0.9596,                                 !- Year Escalation 14
  0.9618,                                 !- Year Escalation 15
  0.9614,                                 !- Year Escalation 16
  0.9618,                                 !- Year Escalation 17
  0.9618,                                 !- Year Escalation 18
  0.9593,                                 !- Year Escalation 19
  0.9589,                                 !- Year Escalation 20
  0.9607,                                 !- Year Escalation 21
  0.9625,                                 !- Year Escalation 22
  0.9650,                                 !- Year Escalation 23
  0.9708,                                 !- Year Escalation 24
  0.9751,                                 !- Year Escalation 25
  0.9762,                                 !- Year Escalation 26
  0.9766,                                 !- Year Escalation 27
  0.9766,                                 !- Year Escalation 28
  0.9769,                                 !- Year Escalation 29
  0.9773;                                 !- Year Escalation 30

LifeCycleCost:UsePriceEscalation,
  U.S. Avg  Commercial-Distillate Oil,    !- Name
  FuelOilNo1,                             !- Resource
  2011,                                   !- Escalation Start Year
  January,                                !- Escalation Start Month
  0.9714,                                 !- Year Escalation 1
  0.9730,                                 !- Year Escalation 2
  0.9942,                                 !- Year Escalation 3
  1.0164,                                 !- Year Escalation 4
  1.0541,                                 !- Year Escalation 5
  1.0928,                                 !- Year Escalation 6
  1.1267,                                 !- Year Escalation 7
  1.1580,                                 !- Year Escalation 8
  1.1792,                                 !- Year Escalation 9
  1.1967,                                 !- Year Escalation 10
  1.2200,                                 !- Year Escalation 11
  1.2333,                                 !- Year Escalation 12
  1.2566,                                 !- Year Escalation 13
  1.2709,                                 !- Year Escalation 14
  1.2826,                                 !- Year Escalation 15
  1.2985,                                 !- Year Escalation 16
  1.3102,                                 !- Year Escalation 17
  1.3250,                                 !- Year Escalation 18
  1.3261,                                 !- Year Escalation 19
  1.3282,                                 !- Year Escalation 20
  1.3324,                                 !- Year Escalation 21
  1.3356,                                 !- Year Escalation 22
  1.3431,                                 !- Year Escalation 23
  1.3510,                                 !- Year Escalation 24
  1.3568,                                 !- Year Escalation 25
  1.3606,                                 !- Year Escalation 26
  1.3637,                                 !- Year Escalation 27
  1.3674,                                 !- Year Escalation 28
  1.3706,                                 !- Year Escalation 29
  1.3743;                                 !- Year Escalation 30

LifeCycleCost:UsePriceEscalation,
  U.S. Avg  Commercial-Residual Oil,      !- Name
  FuelOilNo2,                             !- Resource
  2011,                                   !- Escalation Start Year
  January,                                !- Escalation Start Month
  0.8469,                                 !- Year Escalation 1
  0.8257,                                 !- Year Escalation 2
  0.8681,                                 !- Year Escalation 3
  0.8988,                                 !- Year Escalation 4
  0.9289,                                 !- Year Escalation 5
  0.9604,                                 !- Year Escalation 6
  0.9897,                                 !- Year Escalation 7
  1.0075,                                 !- Year Escalation 8
  1.0314,                                 !- Year Escalation 9
  1.0554,                                 !- Year Escalation 10
  1.0861,                                 !- Year Escalation 11
  1.1278,                                 !- Year Escalation 12
  1.1497,                                 !- Year Escalation 13
  1.1620,                                 !- Year Escalation 14
  1.1743,                                 !- Year Escalation 15
  1.1852,                                 !- Year Escalation 16
  1.1948,                                 !- Year Escalation 17
  1.2037,                                 !- Year Escalation 18
  1.2071,                                 !- Year Escalation 19
  1.2119,                                 !- Year Escalation 20
  1.2139,                                 !- Year Escalation 21
  1.2194,                                 !- Year Escalation 22
  1.2276,                                 !- Year Escalation 23
  1.2365,                                 !- Year Escalation 24
  1.2420,                                 !- Year Escalation 25
  1.2461,                                 !- Year Escalation 26
  1.2509,                                 !- Year Escalation 27
  1.2550,                                 !- Year Escalation 28
  1.2591,                                 !- Year Escalation 29
  1.2638;                                 !- Year Escalation 30

LifeCycleCost:UsePriceEscalation,
  U.S. Avg  Commercial-Natural gas,       !- Name
  NaturalGas,                             !- Resource
  2011,                                   !- Escalation Start Year
  January,                                !- Escalation Start Month
  0.9823,                                 !- Year Escalation 1
  0.9557,                                 !- Year Escalation 2
  0.9279,                                 !- Year Escalation 3
  0.9257,                                 !- Year Escalation 4
  0.9346,                                 !- Year Escalation 5
  0.9412,                                 !- Year Escalation 6
  0.9512,                                 !- Year Escalation 7
  0.9645,                                 !- Year Escalation 8
  0.9856,                                 !- Year Escalation 9
  1.0067,                                 !- Year Escalation 10
  1.0222,                                 !- Year Escalation 11
  1.0410,                                 !- Year Escalation 12
  1.0610,                                 !- Year Escalation 13
  1.0787,                                 !- Year Escalation 14
  1.0942,                                 !- Year Escalation 15
  1.1098,                                 !- Year Escalation 16
  1.1220,                                 !- Year Escalation 17
  1.1308,                                 !- Year Escalation 18
  1.1386,                                 !- Year Escalation 19
  1.1486,                                 !- Year Escalation 20
  1.1619,                                 !- Year Escalation 21
  1.1763,                                 !- Year Escalation 22
  1.1918,                                 !- Year Escalation 23
  1.2118,                                 !- Year Escalation 24
  1.2284,                                 !- Year Escalation 25
  1.2439,                                 !- Year Escalation 26
  1.2605,                                 !- Year Escalation 27
  1.2772,                                 !- Year Escalation 28
  1.2938,                                 !- Year Escalation 29
  1.3115;                                 !- Year Escalation 30

LifeCycleCost:UsePriceEscalation,
  U.S. Avg  Commercial-Coal,              !- Name
  Coal,                                   !- Resource
  2011,                                   !- Escalation Start Year
  January,                                !- Escalation Start Month
  0.9970,                                 !- Year Escalation 1
  1.0089,                                 !- Year Escalation 2
  1.0089,                                 !- Year Escalation 3
  0.9941,                                 !- Year Escalation 4
  0.9941,                                 !- Year Escalation 5
  1.0000,                                 !- Year Escalation 6
  1.0030,                                 !- Year Escalation 7
  1.0059,                                 !- Year Escalation 8
  1.0089,                                 !- Year Escalation 9
  1.0119,                                 !- Year Escalation 10
  1.0148,                                 !- Year Escalation 11
  1.0178,                                 !- Year Escalation 12
  1.0208,                                 !- Year Escalation 13
  1.0267,                                 !- Year Escalation 14
  1.0297,                                 !- Year Escalation 15
  1.0356,                                 !- Year Escalation 16
  1.0415,                                 !- Year Escalation 17
  1.0534,                                 !- Year Escalation 18
  1.0564,                                 !- Year Escalation 19
  1.0593,                                 !- Year Escalation 20
  1.0653,                                 !- Year Escalation 21
  1.0712,                                 !- Year Escalation 22
  1.0742,                                 !- Year Escalation 23
  1.0801,                                 !- Year Escalation 24
  1.0831,                                 !- Year Escalation 25
  1.0831,                                 !- Year Escalation 26
  1.0861,                                 !- Year Escalation 27
  1.0890,                                 !- Year Escalation 28
  1.0920,                                 !- Year Escalation 29
  1.0950;                                 !- Year Escalation 30

Building,
  Parametric_sim,                         !- Name
  0,                                      !- North Axis {deg}
  City,                                   !- Terrain
  ,                                       !- Loads Convergence Tolerance Value {W}
  ,                                       !- Temperature Convergence Tolerance Value {deltaC}
  FullExteriorWithReflections,            !- Solar Distribution
  ,                                       !- Maximum Number of Warmup Days
  ;                                       !- Minimum Number of Warmup Days

Shading:Building:Detailed,
  Shade_00648025,                         !- Name
  ,                                       !- Transmittance Schedule Name
  ,                                       !- Number of Vertices
  29.5508571428572, -0.45, 5.4,           !- X,Y,Z Vertex 1 {m}
  29.5508571428572, -0.45, 4.4,           !- X,Y,Z Vertex 2 {m}
  29.5508571428572, 0, 4.4,               !- X,Y,Z Vertex 3 {m}
  29.5508571428572, 0, 5.4;               !- X,Y,Z Vertex 4 {m}

Shading:Building:Detailed,
  Shade_02a77e5d,                         !- Name
  ,                                       !- Transmittance Schedule Name
  ,                                       !- Number of Vertices
  57.46, 6.2, 8.4,                        !- X,Y,Z Vertex 1 {m}
  57.46, 6.2, 7.4,                        !- X,Y,Z Vertex 2 {m}
  57.91, 6.2, 7.4,                        !- X,Y,Z Vertex 3 {m}
  57.91, 6.2, 8.4;                        !- X,Y,Z Vertex 4 {m}

Shading:Building:Detailed,
  Shade_02ee735d,                         !- Name
  ,                                       !- Transmittance Schedule Name
  ,                                       !- Number of Vertices
  48.4305714285714, 0, 8.4,               !- X,Y,Z Vertex 1 {m}
  48.4305714285714, -0.45, 8.4,           !- X,Y,Z Vertex 2 {m}
  45.968, -0.45, 8.4,                     !- X,Y,Z Vertex 3 {m}
  45.968, 0, 8.4;                         !- X,Y,Z Vertex 4 {m}

Shading:Building:Detailed,
  Shade_0363bb68,                         !- Name
  ,                                       !- Transmittance Schedule Name
  ,                                       !- Number of Vertices
  14.45, 10.1919333333333, 8.4,           !- X,Y,Z Vertex 1 {m}
  14.45, 9.79339999999999, 8.4,           !- X,Y,Z Vertex 2 {m}
  14, 9.79339999999999, 8.4,              !- X,Y,Z Vertex 3 {m}
  14, 10.1919333333333, 8.4;              !- X,Y,Z Vertex 4 {m}

Shading:Building:Detailed,
  Shade_03d857a6,                         !- Name
  ,                                       !- Transmittance Schedule Name
  ,                                       !- Number of Vertices
  5.95, 56.274, 5.4,                      !- X,Y,Z Vertex 1 {m}
  5.95, 56.274, 4.4,                      !- X,Y,Z Vertex 2 {m}
  5.95, 55.824, 4.4,                      !- X,Y,Z Vertex 3 {m}
  5.95, 55.824, 5.4;                      !- X,Y,Z Vertex 4 {m}

Shading:Building:Detailed,
  Shade_04112cc9,                         !- Name
  ,                                       !- Transmittance Schedule Name
  ,                                       !- Number of Vertices
  0, 48.4472571428571, 8.4,               !- X,Y,Z Vertex 1 {m}
  0, 48.4472571428571, 7.4,               !- X,Y,Z Vertex 2 {m}
  -0.45, 48.4472571428571, 7.4,           !- X,Y,Z Vertex 3 {m}
  -0.45, 48.4472571428571, 8.4;           !- X,Y,Z Vertex 4 {m}

Shading:Building:Detailed,
  Shade_0484cf50,                         !- Name
  ,                                       !- Transmittance Schedule Name
  ,                                       !- Number of Vertices
  1.05, 55.824, 5.4,                      !- X,Y,Z Vertex 1 {m}
  1.05, 55.824, 4.4,                      !- X,Y,Z Vertex 2 {m}
  1.05, 56.274, 4.4,                      !- X,Y,Z Vertex 3 {m}
  1.05, 56.274, 5.4;                      !- X,Y,Z Vertex 4 {m}

Shading:Building:Detailed,
  Shade_0517d29d,                         !- Name
  ,                                       !- Transmittance Schedule Name
  ,                                       !- Number of Vertices
  14.45, 10.1919333333333, 2.4,           !- X,Y,Z Vertex 1 {m}
  14.45, 9.79339999999999, 2.4,           !- X,Y,Z Vertex 2 {m}
  14, 9.79339999999999, 2.4,              !- X,Y,Z Vertex 3 {m}
  14, 10.1919333333333, 2.4;              !- X,Y,Z Vertex 4 {m}

Shading:Building:Detailed,
  Shade_053efe35,                         !- Name
  ,                                       !- Transmittance Schedule Name
  ,                                       !- Number of Vertices
  20.7165454545455, 8.45, 8.4,            !- X,Y,Z Vertex 1 {m}
  20.7165454545455, 8, 8.4,               !- X,Y,Z Vertex 2 {m}
  19.1361818181818, 8, 8.4,               !- X,Y,Z Vertex 3 {m}
  19.1361818181818, 8.45, 8.4;            !- X,Y,Z Vertex 4 {m}

Shading:Building:Detailed,
  Shade_05635e33,                         !- Name
  ,                                       !- Transmittance Schedule Name
  ,                                       !- Number of Vertices
  7.3877142857143, 0, 5.4,                !- X,Y,Z Vertex 1 {m}
  7.3877142857143, -0.45, 5.4,            !- X,Y,Z Vertex 2 {m}
  4.92514285714287, -0.45, 5.4,           !- X,Y,Z Vertex 3 {m}
  4.92514285714287, 0, 5.4;               !- X,Y,Z Vertex 4 {m}

Shading:Building:Detailed,
  Shade_06a939fd,                         !- Name
  ,                                       !- Transmittance Schedule Name
  ,                                       !- Number of Vertices
  44.422, 8.45, 2.4,                      !- X,Y,Z Vertex 1 {m}
  44.422, 8.45, 1.4,                      !- X,Y,Z Vertex 2 {m}
  44.422, 8, 1.4,                         !- X,Y,Z Vertex 3 {m}
  44.422, 8, 2.4;                         !- X,Y,Z Vertex 4 {m}

Shading:Building:Detailed,
  Shade_06dbc32f,                         !- Name
  ,                                       !- Transmittance Schedule Name
  ,                                       !- Number of Vertices
  -0.45, 3.38931428571429, 5.4,           !- X,Y,Z Vertex 1 {m}
  -0.45, 3.38931428571429, 4.4,           !- X,Y,Z Vertex 2 {m}
  0, 3.38931428571429, 4.4,               !- X,Y,Z Vertex 3 {m}
  0, 3.38931428571429, 5.4;               !- X,Y,Z Vertex 4 {m}

Shading:Building:Detailed,
  Shade_06fb6292,                         !- Name
  ,                                       !- Transmittance Schedule Name
  ,                                       !- Number of Vertices
  27.038, 8, 5.4,                         !- X,Y,Z Vertex 1 {m}
  27.038, 8, 4.4,                         !- X,Y,Z Vertex 2 {m}
  27.038, 8.45, 4.4,                      !- X,Y,Z Vertex 3 {m}
  27.038, 8.45, 5.4;                      !- X,Y,Z Vertex 4 {m}

Shading:Building:Detailed,
  Shade_0734546d,                         !- Name
  ,                                       !- Transmittance Schedule Name
  ,                                       !- Number of Vertices
  -0.45, 51.2384571428571, 2.4,           !- X,Y,Z Vertex 1 {m}
  -0.45, 51.2384571428571, 1.4,           !- X,Y,Z Vertex 2 {m}
  0, 51.2384571428571, 1.4,               !- X,Y,Z Vertex 3 {m}
  0, 51.2384571428571, 2.4;               !- X,Y,Z Vertex 4 {m}

Shading:Building:Detailed,
  Shade_07642c95,                         !- Name
  ,                                       !- Transmittance Schedule Name
  ,                                       !- Number of Vertices
  37.7594285714286, -0.45, 2.4,           !- X,Y,Z Vertex 1 {m}
  37.7594285714286, -0.45, 1.4,           !- X,Y,Z Vertex 2 {m}
  37.7594285714286, 0, 1.4,               !- X,Y,Z Vertex 3 {m}
  37.7594285714286, 0, 2.4;               !- X,Y,Z Vertex 4 {m}

Shading:Building:Detailed,
  Shade_089ec921,                         !- Name
  ,                                       !- Transmittance Schedule Name
  ,                                       !- Number of Vertices
  8.05, 55.824, 2.4,                      !- X,Y,Z Vertex 1 {m}
  8.05, 55.824, 1.4,                      !- X,Y,Z Vertex 2 {m}
  8.05, 56.274, 1.4,                      !- X,Y,Z Vertex 3 {m}
  8.05, 56.274, 2.4;                      !- X,Y,Z Vertex 4 {m}

Shading:Building:Detailed,
  Shade_0a22487c,                         !- Name
  ,                                       !- Transmittance Schedule Name
  ,                                       !- Number of Vertices
  14, 26.1332666666667, 5.4,              !- X,Y,Z Vertex 1 {m}
  14, 26.1332666666667, 4.4,              !- X,Y,Z Vertex 2 {m}
  14.45, 26.1332666666667, 4.4,           !- X,Y,Z Vertex 3 {m}
  14.45, 26.1332666666667, 5.4;           !- X,Y,Z Vertex 4 {m}

Shading:Building:Detailed,
  Shade_0a46bc9c,                         !- Name
  ,                                       !- Transmittance Schedule Name
  ,                                       !- Number of Vertices
  -0.45, 35.2887428571429, 8.4,           !- X,Y,Z Vertex 1 {m}
  -0.45, 35.2887428571429, 7.4,           !- X,Y,Z Vertex 2 {m}
  0, 35.2887428571429, 7.4,               !- X,Y,Z Vertex 3 {m}
  0, 35.2887428571429, 8.4;               !- X,Y,Z Vertex 4 {m}

Shading:Building:Detailed,
  Shade_0aae583f,                         !- Name
  ,                                       !- Transmittance Schedule Name
  ,                                       !- Number of Vertices
  0, 11.3641714285714, 8.4,               !- X,Y,Z Vertex 1 {m}
  0, 8.57297142857143, 8.4,               !- X,Y,Z Vertex 2 {m}
  -0.45, 8.57297142857143, 8.4,           !- X,Y,Z Vertex 3 {m}
  -0.45, 11.3641714285714, 8.4;           !- X,Y,Z Vertex 4 {m}

Shading:Building:Detailed,
  Shade_0af371e1,                         !- Name
  ,                                       !- Transmittance Schedule Name
  ,                                       !- Number of Vertices
  11.55, 55.824, 2.4,                     !- X,Y,Z Vertex 1 {m}
  11.55, 55.824, 1.4,                     !- X,Y,Z Vertex 2 {m}
  11.55, 56.274, 1.4,                     !- X,Y,Z Vertex 3 {m}
  11.55, 56.274, 2.4;                     !- X,Y,Z Vertex 4 {m}

Shading:Building:Detailed,
  Shade_0c164a68,                         !- Name
  ,                                       !- Transmittance Schedule Name
  ,                                       !- Number of Vertices
  0, 47.2510285714286, 5.4,               !- X,Y,Z Vertex 1 {m}
  0, 44.4598285714286, 5.4,               !- X,Y,Z Vertex 2 {m}
  -0.45, 44.4598285714286, 5.4,           !- X,Y,Z Vertex 3 {m}
  -0.45, 47.2510285714286, 5.4;           !- X,Y,Z Vertex 4 {m}

Shading:Building:Detailed,
  Shade_0ca015b6,                         !- Name
  ,                                       !- Transmittance Schedule Name
  ,                                       !- Number of Vertices
  -0.45, 11.3641714285714, 5.4,           !- X,Y,Z Vertex 1 {m}
  -0.45, 11.3641714285714, 4.4,           !- X,Y,Z Vertex 2 {m}
  0, 11.3641714285714, 4.4,               !- X,Y,Z Vertex 3 {m}
  0, 11.3641714285714, 5.4;               !- X,Y,Z Vertex 4 {m}

Shading:Building:Detailed,
  Shade_0dd214f2,                         !- Name
  ,                                       !- Transmittance Schedule Name
  ,                                       !- Number of Vertices
  30.9889090909091, 8, 5.4,               !- X,Y,Z Vertex 1 {m}
  30.9889090909091, 8, 4.4,               !- X,Y,Z Vertex 2 {m}
  30.9889090909091, 8.45, 4.4,            !- X,Y,Z Vertex 3 {m}
  30.9889090909091, 8.45, 5.4;            !- X,Y,Z Vertex 4 {m}

Shading:Building:Detailed,
  Shade_0e49d6f0,                         !- Name
  ,                                       !- Transmittance Schedule Name
  ,                                       !- Number of Vertices
  14, 50.0452666666667, 8.4,              !- X,Y,Z Vertex 1 {m}
  14, 50.0452666666667, 7.4,              !- X,Y,Z Vertex 2 {m}
  14.45, 50.0452666666667, 7.4,           !- X,Y,Z Vertex 3 {m}
  14.45, 50.0452666666667, 8.4;           !- X,Y,Z Vertex 4 {m}

Shading:Building:Detailed,
  Shade_0e78f040,                         !- Name
  ,                                       !- Transmittance Schedule Name
  ,                                       !- Number of Vertices
  14.45, 46.0599333333333, 2.4,           !- X,Y,Z Vertex 1 {m}
  14.45, 45.6614, 2.4,                    !- X,Y,Z Vertex 2 {m}
  14, 45.6614, 2.4,                       !- X,Y,Z Vertex 3 {m}
  14, 46.0599333333333, 2.4;              !- X,Y,Z Vertex 4 {m}

Shading:Building:Detailed,
  Shade_0e9bda45,                         !- Name
  ,                                       !- Transmittance Schedule Name
  ,                                       !- Number of Vertices
  14, 10.1919333333333, 2.4,              !- X,Y,Z Vertex 1 {m}
  14, 10.1919333333333, 1.4,              !- X,Y,Z Vertex 2 {m}
  14.45, 10.1919333333333, 1.4,           !- X,Y,Z Vertex 3 {m}
  14.45, 10.1919333333333, 2.4;           !- X,Y,Z Vertex 4 {m}

Shading:Building:Detailed,
  Shade_0eb50ec9,                         !- Name
  ,                                       !- Transmittance Schedule Name
  ,                                       !- Number of Vertices
  14.45, 42.0746, 8.4,                    !- X,Y,Z Vertex 1 {m}
  14.45, 41.6760666666667, 8.4,           !- X,Y,Z Vertex 2 {m}
  14, 41.6760666666667, 8.4,              !- X,Y,Z Vertex 3 {m}
  14, 42.0746, 8.4;                       !- X,Y,Z Vertex 4 {m}

Shading:Building:Detailed,
  Shade_0ec675a8,                         !- Name
  ,                                       !- Transmittance Schedule Name
  ,                                       !- Number of Vertices
  14.45, 42.0746, 5.4,                    !- X,Y,Z Vertex 1 {m}
  14.45, 41.6760666666667, 5.4,           !- X,Y,Z Vertex 2 {m}
  14, 41.6760666666667, 5.4,              !- X,Y,Z Vertex 3 {m}
  14, 42.0746, 5.4;                       !- X,Y,Z Vertex 4 {m}

Shading:Building:Detailed,
  Shade_0ecb583e,                         !- Name
  ,                                       !- Transmittance Schedule Name
  ,                                       !- Number of Vertices
  14.45, 17.7640666666667, 5.4,           !- X,Y,Z Vertex 1 {m}
  14.45, 17.7640666666667, 4.4,           !- X,Y,Z Vertex 2 {m}
  14, 17.7640666666667, 4.4,              !- X,Y,Z Vertex 3 {m}
  14, 17.7640666666667, 5.4;              !- X,Y,Z Vertex 4 {m}

Shading:Building:Detailed,
  Shade_0f1daea7,                         !- Name
  ,                                       !- Transmittance Schedule Name
  ,                                       !- Number of Vertices
  44.3262857142857, 0, 5.4,               !- X,Y,Z Vertex 1 {m}
  44.3262857142857, -0.45, 5.4,           !- X,Y,Z Vertex 2 {m}
  41.8637142857143, -0.45, 5.4,           !- X,Y,Z Vertex 3 {m}
  41.8637142857143, 0, 5.4;               !- X,Y,Z Vertex 4 {m}

Shading:Building:Detailed,
  Shade_0fba2ad2,                         !- Name
  ,                                       !- Transmittance Schedule Name
  ,                                       !- Number of Vertices
  -0.45, 55.2258857142857, 5.4,           !- X,Y,Z Vertex 1 {m}
  -0.45, 55.2258857142857, 4.4,           !- X,Y,Z Vertex 2 {m}
  0, 55.2258857142857, 4.4,               !- X,Y,Z Vertex 3 {m}
  0, 55.2258857142857, 5.4;               !- X,Y,Z Vertex 4 {m}

Shading:Building:Detailed,
  Shade_0ffcab4a,                         !- Name
  ,                                       !- Transmittance Schedule Name
  ,                                       !- Number of Vertices
  20.7165454545455, 8.45, 5.4,            !- X,Y,Z Vertex 1 {m}
  20.7165454545455, 8.45, 4.4,            !- X,Y,Z Vertex 2 {m}
  20.7165454545455, 8, 4.4,               !- X,Y,Z Vertex 3 {m}
  20.7165454545455, 8, 5.4;               !- X,Y,Z Vertex 4 {m}

Shading:Building:Detailed,
  Shade_10223864,                         !- Name
  ,                                       !- Transmittance Schedule Name
  ,                                       !- Number of Vertices
  15.1852727272727, 8, 2.4,               !- X,Y,Z Vertex 1 {m}
  15.1852727272727, 8, 1.4,               !- X,Y,Z Vertex 2 {m}
  15.1852727272727, 8.45, 1.4,            !- X,Y,Z Vertex 3 {m}
  15.1852727272727, 8.45, 2.4;            !- X,Y,Z Vertex 4 {m}

Shading:Building:Detailed,
  Shade_1065bcc4,                         !- Name
  ,                                       !- Transmittance Schedule Name
  ,                                       !- Number of Vertices
  23.0870909090909, 8, 5.4,               !- X,Y,Z Vertex 1 {m}
  23.0870909090909, 8, 4.4,               !- X,Y,Z Vertex 2 {m}
  23.0870909090909, 8.45, 4.4,            !- X,Y,Z Vertex 3 {m}
  23.0870909090909, 8.45, 5.4;            !- X,Y,Z Vertex 4 {m}

Shading:Building:Detailed,
  Shade_1123b0d0,                         !- Name
  ,                                       !- Transmittance Schedule Name
  ,                                       !- Number of Vertices
  0, 12.5604, 2.4,                        !- X,Y,Z Vertex 1 {m}
  0, 12.5604, 1.4,                        !- X,Y,Z Vertex 2 {m}
  -0.45, 12.5604, 1.4,                    !- X,Y,Z Vertex 3 {m}
  -0.45, 12.5604, 2.4;                    !- X,Y,Z Vertex 4 {m}

Shading:Building:Detailed,
  Shade_112cf1d8,                         !- Name
  ,                                       !- Transmittance Schedule Name
  ,                                       !- Number of Vertices
  -0.45, 35.2887428571429, 5.4,           !- X,Y,Z Vertex 1 {m}
  -0.45, 35.2887428571429, 4.4,           !- X,Y,Z Vertex 2 {m}
  0, 35.2887428571429, 4.4,               !- X,Y,Z Vertex 3 {m}
  0, 35.2887428571429, 5.4;               !- X,Y,Z Vertex 4 {m}

Shading:Building:Detailed,
  Shade_11e452a2,                         !- Name
  ,                                       !- Transmittance Schedule Name
  ,                                       !- Number of Vertices
  40.222, 0, 8.4,                         !- X,Y,Z Vertex 1 {m}
  40.222, 0, 7.4,                         !- X,Y,Z Vertex 2 {m}
  40.222, -0.45, 7.4,                     !- X,Y,Z Vertex 3 {m}
  40.222, -0.45, 8.4;                     !- X,Y,Z Vertex 4 {m}

Shading:Building:Detailed,
  Shade_1224f226,                         !- Name