
Version,
  22.2;                                   !- Version Identifier

Timestep,
  6;                                      !- Number of Timesteps per Hour

LifeCycleCost:Parameters,
  Life Cycle Cost Parameters,             !- Name
  EndOfYear,                              !- Discounting Convention
  ConstantDollar,                         !- Inflation Approach
  0.03,                                   !- Real Discount Rate
  ,                                       !- Nominal Discount Rate
  ,                                       !- Inflation
  ,                                       !- Base Date Month
  2011,                                   !- Base Date Year
  ,                                       !- Service Date Month
  2011,                                   !- Service Date Year
  25,                                     !- Length of Study Period in Years
  ,                                       !- Tax rate
  None;                                   !- Depreciation Method

LifeCycleCost:UsePriceEscalation,
  U.S. Avg  Commercial-Electricity,       !- Name
  Electricity,                            !- Resource
  2011,                                   !- Escalation Start Year
  January,                                !- Escalation Start Month
  0.9838,                                 !- Year Escalation 1
  0.9730,                                 !- Year Escalation 2
  0.9632,                                 !- Year Escalation 3
  0.9611,                                 !- Year Escalation 4
  0.9571,                                 !- Year Escalation 5
  0.9553,                                 !- Year Escalation 6
  0.9539,                                 !- Year Escalation 7
  0.9521,                                 !- Year Escalation 8
  0.9546,                                 !- Year Escalation 9
  0.9550,                                 !- Year Escalation 10
  0.9553,                                 !- Year Escalation 11
  0.9564,                                 !- Year Escalation 12
  0.9575,                                 !- Year Escalation 13
  0.9596,                                 !- Year Escalation 14
  0.9618,                                 !- Year Escalation 15
  0.9614,                                 !- Year Escalation 16
  0.9618,                                 !- Year Escalation 17
  0.9618,                                 !- Year Escalation 18
  0.9593,                                 !- Year Escalation 19
  0.9589,                                 !- Year Escalation 20
  0.9607,                                 !- Year Escalation 21
  0.9625,                                 !- Year Escalation 22
  0.9650,                                 !- Year Escalation 23
  0.9708,                                 !- Year Escalation 24
  0.9751,                                 !- Year Escalation 25
  0.9762,                                 !- Year Escalation 26
  0.9766,                                 !- Year Escalation 27
  0.9766,                                 !- Year Escalation 28
  0.9769,                                 !- Year Escalation 29
  0.9773;                                 !- Year Escalation 30

LifeCycleCost:UsePriceEscalation,
  U.S. Avg  Commercial-Distillate Oil,    !- Name
  FuelOilNo1,                             !- Resource
  2011,                                   !- Escalation Start Year
  January,                                !- Escalation Start Month
  0.9714,                                 !- Year Escalation 1
  0.9730,                                 !- Year Escalation 2
  0.9942,                                 !- Year Escalation 3
  1.0164,                                 !- Year Escalation 4
  1.0541,                                 !- Year Escalation 5
  1.0928,                                 !- Year Escalation 6
  1.1267,                                 !- Year Escalation 7
  1.1580,                                 !- Year Escalation 8
  1.1792,                                 !- Year Escalation 9
  1.1967,                                 !- Year Escalation 10
  1.2200,                                 !- Year Escalation 11
  1.2333,                                 !- Year Escalation 12
  1.2566,                                 !- Year Escalation 13
  1.2709,                                 !- Year Escalation 14
  1.2826,                                 !- Year Escalation 15
  1.2985,                                 !- Year Escalation 16
  1.3102,                                 !- Year Escalation 17
  1.3250,                                 !- Year Escalation 18
  1.3261,                                 !- Year Escalation 19
  1.3282,                                 !- Year Escalation 20
  1.3324,                                 !- Year Escalation 21
  1.3356,                                 !- Year Escalation 22
  1.3431,                                 !- Year Escalation 23
  1.3510,                                 !- Year Escalation 24
  1.3568,                                 !- Year Escalation 25
  1.3606,                                 !- Year Escalation 26
  1.3637,                                 !- Year Escalation 27
  1.3674,                                 !- Year Escalation 28
  1.3706,                                 !- Year Escalation 29
  1.3743;                                 !- Year Escalation 30

LifeCycleCost:UsePriceEscalation,
  U.S. Avg  Commercial-Residual Oil,      !- Name
  FuelOilNo2,                             !- Resource
  2011,                                   !- Escalation Start Year
  January,                                !- Escalation Start Month
  0.8469,                                 !- Year Escalation 1
  0.8257,                                 !- Year Escalation 2
  0.8681,                                 !- Year Escalation 3
  0.8988,                                 !- Year Escalation 4
  0.9289,                                 !- Year Escalation 5
  0.9604,                                 !- Year Escalation 6
  0.9897,                                 !- Year Escalation 7
  1.0075,                                 !- Year Escalation 8
  1.0314,                                 !- Year Escalation 9
  1.0554,                                 !- Year Escalation 10
  1.0861,                                 !- Year Escalation 11
  1.1278,                                 !- Year Escalation 12
  1.1497,                                 !- Year Escalation 13
  1.1620,                                 !- Year Escalation 14
  1.1743,                                 !- Year Escalation 15
  1.1852,                                 !- Year Escalation 16
  1.1948,                                 !- Year Escalation 17
  1.2037,                                 !- Year Escalation 18
  1.2071,                                 !- Year Escalation 19
  1.2119,                                 !- Year Escalation 20
  1.2139,                                 !- Year Escalation 21
  1.2194,                                 !- Year Escalation 22
  1.2276,                                 !- Year Escalation 23
  1.2365,                                 !- Year Escalation 24
  1.2420,                                 !- Year Escalation 25
  1.2461,                                 !- Year Escalation 26
  1.2509,                                 !- Year Escalation 27
  1.2550,                                 !- Year Escalation 28
  1.2591,                                 !- Year Escalation 29
  1.2638;                                 !- Year Escalation 30

LifeCycleCost:UsePriceEscalation,
  U.S. Avg  Commercial-Natural gas,       !- Name
  NaturalGas,                             !- Resource
  2011,                                   !- Escalation Start Year
  January,                                !- Escalation Start Month
  0.9823,                                 !- Year Escalation 1
  0.9557,                                 !- Year Escalation 2
  0.9279,                                 !- Year Escalation 3
  0.9257,                                 !- Year Escalation 4
  0.9346,                                 !- Year Escalation 5
  0.9412,                                 !- Year Escalation 6
  0.9512,                                 !- Year Escalation 7
  0.9645,                                 !- Year Escalation 8
  0.9856,                                 !- Year Escalation 9
  1.0067,                                 !- Year Escalation 10
  1.0222,                                 !- Year Escalation 11
  1.0410,                                 !- Year Escalation 12
  1.0610,                                 !- Year Escalation 13
  1.0787,                                 !- Year Escalation 14
  1.0942,                                 !- Year Escalation 15
  1.1098,                                 !- Year Escalation 16
  1.1220,                                 !- Year Escalation 17
  1.1308,                                 !- Year Escalation 18
  1.1386,                                 !- Year Escalation 19
  1.1486,                                 !- Year Escalation 20
  1.1619,                                 !- Year Escalation 21
  1.1763,                                 !- Year Escalation 22
  1.1918,                                 !- Year Escalation 23
  1.2118,                                 !- Year Escalation 24
  1.2284,                                 !- Year Escalation 25
  1.2439,                                 !- Year Escalation 26
  1.2605,                                 !- Year Escalation 27
  1.2772,                                 !- Year Escalation 28
  1.2938,                                 !- Year Escalation 29
  1.3115;                                 !- Year Escalation 30

LifeCycleCost:UsePriceEscalation,
  U.S. Avg  Commercial-Coal,              !- Name
  Coal,                                   !- Resource
  2011,                                   !- Escalation Start Year
  January,                                !- Escalation Start Month
  0.9970,                                 !- Year Escalation 1
  1.0089,                                 !- Year Escalation 2
  1.0089,                                 !- Year Escalation 3
  0.9941,                                 !- Year Escalation 4
  0.9941,                                 !- Year Escalation 5
  1.0000,                                 !- Year Escalation 6
  1.0030,                                 !- Year Escalation 7
  1.0059,                                 !- Year Escalation 8
  1.0089,                                 !- Year Escalation 9
  1.0119,                                 !- Year Escalation 10
  1.0148,                                 !- Year Escalation 11
  1.0178,                                 !- Year Escalation 12
  1.0208,                                 !- Year Escalation 13
  1.0267,                                 !- Year Escalation 14
  1.0297,                                 !- Year Escalation 15
  1.0356,                                 !- Year Escalation 16
  1.0415,                                 !- Year Escalation 17
  1.0534,                                 !- Year Escalation 18
  1.0564,                                 !- Year Escalation 19
  1.0593,                                 !- Year Escalation 20
  1.0653,                                 !- Year Escalation 21
  1.0712,                                 !- Year Escalation 22
  1.0742,                                 !- Year Escalation 23
  1.0801,                                 !- Year Escalation 24
  1.0831,                                 !- Year Escalation 25
  1.0831,                                 !- Year Escalation 26
  1.0861,                                 !- Year Escalation 27
  1.0890,                                 !- Year Escalation 28
  1.0920,                                 !- Year Escalation 29
  1.0950;                                 !- Year Escalation 30

Building,
  Parametric_sim,                         !- Name
  0,                                      !- North Axis {deg}
  City,                                   !- Terrain
  ,                                       !- Loads Convergence Tolerance Value {W}
  ,                                       !- Temperature Convergence Tolerance Value {deltaC}
  FullExteriorWithReflections,            !- Solar Distribution
  ,                                       !- Maximum Number of Warmup Days
  ;                                       !- Minimum Number of Warmup Days

Shading:Building:Detailed,
  Shade_002faa06,                         !- Name
  ,                                       !- Transmittance Schedule Name
  ,                                       !- Number of Vertices
  14.45, 21.7494, 2.4,                    !- X,Y,Z Vertex 1 {m}
  14.45, 21.7494, 1.4,                    !- X,Y,Z Vertex 2 {m}
  14, 21.7494, 1.4,                       !- X,Y,Z Vertex 3 {m}
  14, 21.7494, 2.4;                       !- X,Y,Z Vertex 4 {m}

Shading:Building:Detailed,
  Shade_0064878d,                         !- Name
  ,                                       !- Transmittance Schedule Name
  ,                                       !- Number of Vertices
  14.45, 42.0746, 8.4,                    !- X,Y,Z Vertex 1 {m}
  14.45, 41.6760666666667, 8.4,           !- X,Y,Z Vertex 2 {m}
  14, 41.6760666666667, 8.4,              !- X,Y,Z Vertex 3 {m}
  14, 42.0746, 8.4;                       !- X,Y,Z Vertex 4 {m}

Shading:Building:Detailed,
  Shade_0146c8a8,                         !- Name
  ,                                       !- Transmittance Schedule Name
  ,                                       !- Number of Vertices
  39.0840333333333, 0, 5.4,               !- X,Y,Z Vertex 1 {m}
  39.0840333333333, 0, 4.4,               !- X,Y,Z Vertex 2 {m}
  39.0840333333333, -0.45, 4.4,           !- X,Y,Z Vertex 3 {m}
  39.0840333333333, -0.45, 5.4;           !- X,Y,Z Vertex 4 {m}

Shading:Building:Detailed,
  Shade_0157f9fb,                         !- Name
  ,                                       !- Transmittance Schedule Name
  ,                                       !- Number of Vertices
  40.6793, -0.45, 2.4,                    !- X,Y,Z Vertex 1 {m}
  40.6793, -0.45, 1.4,                    !- X,Y,Z Vertex 2 {m}
  40.6793, 0, 1.4,                        !- X,Y,Z Vertex 3 {m}
  40.6793, 0, 2.4;                        !- X,Y,Z Vertex 4 {m}

Shading:Building:Detailed,
  Shade_018d2197,                         !- Name
  ,                                       !- Transmittance Schedule Name
  ,                                       !- Number of Vertices
  45.78285, 8.45, 8.4,                    !- X,Y,Z Vertex 1 {m}
  45.78285, 8.45, 7.4,                    !- X,Y,Z Vertex 2 {m}
  45.78285, 8, 7.4,                       !- X,Y,Z Vertex 3 {m}
  45.78285, 8, 8.4;                       !- X,Y,Z Vertex 4 {m}

Shading:Building:Detailed,
  Shade_01b9d2d5,                         !- Name
  ,                                       !- Transmittance Schedule Name
  ,                                       !- Number of Vertices
  -0.45, 23.3264571428571, 2.4,           !- X,Y,Z Vertex 1 {m}
  -0.45, 23.3264571428571, 1.4,           !- X,Y,Z Vertex 2 {m}
  0, 23.3264571428571, 1.4,               !- X,Y,Z Vertex 3 {m}
  0, 23.3264571428571, 2.4;               !- X,Y,Z Vertex 4 {m}

Shading:Building:Detailed,
  Shade_01c03f89,                         !- Name
  ,                                       !- Transmittance Schedule Name
  ,                                       !- Number of Vertices
  71.787, 2.2, 2.4,                       !- X,Y,Z Vertex 1 {m}
  71.787, 2.2, 1.4,                       !- X,Y,Z Vertex 2 {m}
  72.237, 2.2, 1.4,                       !- X,Y,Z Vertex 3 {m}
  72.237, 2.2, 2.4;                       !- X,Y,Z Vertex 4 {m}

Shading:Building:Detailed,
  Shade_02043acb,                         !- Name
  ,                                       !- Transmittance Schedule Name
  ,                                       !- Number of Vertices
  35.8765071428572, 8, 8.4,               !- X,Y,Z Vertex 1 {m}
  35.8765071428572, 8, 7.4,               !- X,Y,Z Vertex 2 {m}
  35.8765071428572, 8.45, 7.4,            !- X,Y,Z Vertex 3 {m}
  35.8765071428572, 8.45, 8.4;            !- X,Y,Z Vertex 4 {m}

Shading:Building:Detailed,
  Shade_022e3470,                         !- Name
  ,                                       !- Transmittance Schedule Name
  ,                                       !- Number of Vertices
  14.45, 33.7054, 5.4,                    !- X,Y,Z Vertex 1 {m}
  14.45, 33.7054, 4.4,                    !- X,Y,Z Vertex 2 {m}
  14, 33.7054, 4.4,                       !- X,Y,Z Vertex 3 {m}
  14, 33.7054, 5.4;                       !- X,Y,Z Vertex 4 {m}

Shading:Building:Detailed,
  Shade_03adf0f4,                         !- Name
  ,                                       !- Transmittance Schedule Name
  ,                                       !- Number of Vertices
  0, 16.5478285714286, 8.4,               !- X,Y,Z Vertex 1 {m}
  0, 16.5478285714286, 7.4,               !- X,Y,Z Vertex 2 {m}
  -0.45, 16.5478285714286, 7.4,           !- X,Y,Z Vertex 3 {m}
  -0.45, 16.5478285714286, 8.4;           !- X,Y,Z Vertex 4 {m}

Shading:Building:Detailed,
  Shade_03d470a3,                         !- Name
  ,                                       !- Transmittance Schedule Name
  ,                                       !- Number of Vertices
  66.4210642857143, 8.45, 8.4,            !- X,Y,Z Vertex 1 {m}
  66.4210642857143, 8.45, 7.4,            !- X,Y,Z Vertex 2 {m}
  66.4210642857143, 8, 7.4,               !- X,Y,Z Vertex 3 {m}
  66.4210642857143, 8, 8.4;               !- X,Y,Z Vertex 4 {m}

Shading:Building:Detailed,
  Shade_03d5b82f,                         !- Name
  ,                                       !- Transmittance Schedule Name
  ,                                       !- Number of Vertices
  19.3659357142857, 8, 5.4,               !- X,Y,Z Vertex 1 {m}
  19.3659357142857, 8, 4.4,               !- X,Y,Z Vertex 2 {m}
  19.3659357142857, 8.45, 4.4,            !- X,Y,Z Vertex 3 {m}
  19.3659357142857, 8.45, 5.4;            !- X,Y,Z Vertex 4 {m}

Shading:Building:Detailed,
  Shade_041a7141,                         !- Name
  ,                                       !- Transmittance Schedule Name
  ,                                       !- Number of Vertices
  14, 54.0306, 8.4,                       !- X,Y,Z Vertex 1 {m}
  14, 54.0306, 7.4,                       !- X,Y,Z Vertex 2 {m}
  14.45, 54.0306, 7.4,                    !- X,Y,Z Vertex 3 {m}
  14.45, 54.0306, 8.4;                    !- X,Y,Z Vertex 4 {m}

Shading:Building:Detailed,
  Shade_041ae79d,                         !- Name
  ,                                       !- Transmittance Schedule Name
  ,                                       !- Number of Vertices
  -0.45, 31.3013142857143, 2.4,           !- X,Y,Z Vertex 1 {m}
  -0.45, 31.3013142857143, 1.4,           !- X,Y,Z Vertex 2 {m}
  0, 31.3013142857143, 1.4,               !- X,Y,Z Vertex 3 {m}
  0, 31.3013142857143, 2.4;               !- X,Y,Z Vertex 4 {m}

Shading:Building:Detailed,
  Shade_049bfedb,                         !- Name
  ,                                       !- Transmittance Schedule Name
  ,                                       !- Number of Vertices
  14.45, 22.1479333333333, 5.4,           !- X,Y,Z Vertex 1 {m}
  14.45, 21.7494, 5.4,                    !- X,Y,Z Vertex 2 {m}
  14, 21.7494, 5.4,                       !- X,Y,Z Vertex 3 {m}
  14, 22.1479333333333, 5.4;              !- X,Y,Z Vertex 4 {m}

Shading:Building:Detailed,
  Shade_04b2a335,                         !- Name
  ,                                       !- Transmittance Schedule Name
  ,                                       !- Number of Vertices
  71.787, 6.2, 2.4,                       !- X,Y,Z Vertex 1 {m}
  71.787, 6.2, 1.4,                       !- X,Y,Z Vertex 2 {m}
  72.237, 6.2, 1.4,                       !- X,Y,Z Vertex 3 {m}
  72.237, 6.2, 2.4;                       !- X,Y,Z Vertex 4 {m}

Shading:Building:Detailed,
  Shade_05cd5a68,                         !- Name
  ,                                       !- Transmittance Schedule Name
  ,                                       !- Number of Vertices
  0, 44.4598285714286, 5.4,               !- X,Y,Z Vertex 1 {m}
  0, 44.4598285714286, 4.4,               !- X,Y,Z Vertex 2 {m}
  -0.45, 44.4598285714286, 4.4,           !- X,Y,Z Vertex 3 {m}
  -0.45, 44.4598285714286, 5.4;           !- X,Y,Z Vertex 4 {m}

Shading:Building:Detailed,
  Shade_069429ec,                         !- Name
  ,                                       !- Transmittance Schedule Name
  ,                                       !- Number of Vertices
  72.237, 6.2, 2.4,                       !- X,Y,Z Vertex 1 {m}
  72.237, 5.8, 2.4,                       !- X,Y,Z Vertex 2 {m}
  71.787, 5.8, 2.4,                       !- X,Y,Z Vertex 3 {m}
  71.787, 6.2, 2.4;                       !- X,Y,Z Vertex 4 {m}

Shading:Building:Detailed,
  Shade_06b6310b,                         !- Name
  ,                                       !- Transmittance Schedule Name
  ,                                       !- Number of Vertices
  0, 15.3516, 5.4,                        !- X,Y,Z Vertex 1 {m}
  0, 12.5604, 5.4,                        !- X,Y,Z Vertex 2 {m}
  -0.45, 12.5604, 5.4,                    !- X,Y,Z Vertex 3 {m}
  -0.45, 15.3516, 5.4;                    !- X,Y,Z Vertex 4 {m}

Shading:Building:Detailed,
  Shade_06c32046,                         !- Name
  ,                                       !- Transmittance Schedule Name
  ,                                       !- Number of Vertices
  51.0485333333333, 0, 2.4,               !- X,Y,Z Vertex 1 {m}
  51.0485333333333, 0, 1.4,               !- X,Y,Z Vertex 2 {m}
  51.0485333333333, -0.45, 1.4,           !- X,Y,Z Vertex 3 {m}
  51.0485333333333, -0.45, 2.4;           !- X,Y,Z Vertex 4 {m}

Shading:Building:Detailed,
  Shade_07c9f670,                         !- Name
  ,                                       !- Transmittance Schedule Name
  ,                                       !- Number of Vertices
  63.0130333333333, 0, 2.4,               !- X,Y,Z Vertex 1 {m}
  63.0130333333333, 0, 1.4,               !- X,Y,Z Vertex 2 {m}
  63.0130333333333, -0.45, 1.4,           !- X,Y,Z Vertex 3 {m}
  63.0130333333333, -0.45, 2.4;           !- X,Y,Z Vertex 4 {m}

Shading:Building:Detailed,
  Shade_07d39626,                         !- Name
  ,                                       !- Transmittance Schedule Name
  ,                                       !- Number of Vertices
  0, 20.5352571428571, 8.4,               !- X,Y,Z Vertex 1 {m}
  0, 20.5352571428571, 7.4,               !- X,Y,Z Vertex 2 {m}
  -0.45, 20.5352571428571, 7.4,           !- X,Y,Z Vertex 3 {m}
  -0.45, 20.5352571428571, 8.4;           !- X,Y,Z Vertex 4 {m}

Shading:Building:Detailed,
  Shade_089418f4,                         !- Name
  ,                                       !- Transmittance Schedule Name
  ,                                       !- Number of Vertices
  14.45, 49.6467333333333, 5.4,           !- X,Y,Z Vertex 1 {m}
  14.45, 49.6467333333333, 4.4,           !- X,Y,Z Vertex 2 {m}
  14, 49.6467333333333, 4.4,              !- X,Y,Z Vertex 3 {m}
  14, 49.6467333333333, 5.4;              !- X,Y,Z Vertex 4 {m}

Shading:Building:Detailed,
  Shade_08ddb2fd,                         !- Name
  ,                                       !- Transmittance Schedule Name
  ,                                       !- Number of Vertices
  14.45, 30.1186, 5.4,                    !- X,Y,Z Vertex 1 {m}
  14.45, 29.7200666666667, 5.4,           !- X,Y,Z Vertex 2 {m}
  14, 29.7200666666667, 5.4,              !- X,Y,Z Vertex 3 {m}
  14, 30.1186, 5.4;                       !- X,Y,Z Vertex 4 {m}

Shading:Building:Detailed,
  Shade_0a87214f,                         !- Name
  ,                                       !- Transmittance Schedule Name
  ,                                       !- Number of Vertices
  56.6319666666667, -0.45, 8.4,           !- X,Y,Z Vertex 1 {m}
  56.6319666666667, -0.45, 7.4,           !- X,Y,Z Vertex 2 {m}
  56.6319666666667, 0, 7.4,               !- X,Y,Z Vertex 3 {m}
  56.6319666666667, 0, 8.4;               !- X,Y,Z Vertex 4 {m}

Shading:Building:Detailed,
  Shade_0afdc81a,                         !- Name
  ,                                       !- Transmittance Schedule Name
  ,                                       !- Number of Vertices
  35.8765071428572, 8, 5.4,               !- X,Y,Z Vertex 1 {m}
  35.8765071428572, 8, 4.4,               !- X,Y,Z Vertex 2 {m}
  35.8765071428572, 8.45, 4.4,            !- X,Y,Z Vertex 3 {m}
  35.8765071428572, 8.45, 5.4;            !- X,Y,Z Vertex 4 {m}

Shading:Building:Detailed,
  Shade_0b6fc9f2,                         !- Name
  ,                                       !- Transmittance Schedule Name
  ,                                       !- Number of Vertices
  0, 4.58554285714286, 5.4,               !- X,Y,Z Vertex 1 {m}
  0, 4.58554285714286, 4.4,               !- X,Y,Z Vertex 2 {m}
  -0.45, 4.58554285714286, 4.4,           !- X,Y,Z Vertex 3 {m}
  -0.45, 4.58554285714286, 5.4;           !- X,Y,Z Vertex 4 {m}

Shading:Building:Detailed,
  Shade_0bc0d182,                         !- Name
  ,                                       !- Transmittance Schedule Name
  ,                                       !- Number of Vertices
  14.45, 33.7054, 8.4,                    !- X,Y,Z Vertex 1 {m}
  14.45, 33.7054, 7.4,                    !- X,Y,Z Vertex 2 {m}
  14, 33.7054, 7.4,                       !- X,Y,Z Vertex 3 {m}
  14, 33.7054, 8.4;                       !- X,Y,Z Vertex 4 {m}

Shading:Building:Detailed,
  Shade_0bc9a1fe,                         !- Name
  ,                                       !- Transmittance Schedule Name
  ,                                       !- Number of Vertices
  0, 36.4849714285714, 2.4,               !- X,Y,Z Vertex 1 {m}
  0, 36.4849714285714, 1.4,               !- X,Y,Z Vertex 2 {m}
  -0.45, 36.4849714285714, 1.4,           !- X,Y,Z Vertex 3 {m}
  -0.45, 36.4849714285714, 2.4;           !- X,Y,Z Vertex 4 {m}

Shading:Building:Detailed,
  Shade_0c0f3dde,                         !- Name
  ,                                       !- Transmittance Schedule Name
  ,                                       !- Number of Vertices
  12.7621333333333, -0.45, 2.4,           !- X,Y,Z Vertex 1 {m}
  12.7621333333333, -0.45, 1.4,           !- X,Y,Z Vertex 2 {m}
  12.7621333333333, 0, 1.4,               !- X,Y,Z Vertex 3 {m}
  12.7621333333333, 0, 2.4;               !- X,Y,Z Vertex 4 {m}

Shading:Building:Detailed,
  Shade_0cbaf2e2,                         !- Name
  ,                                       !- Transmittance Schedule Name
  ,                                       !- Number of Vertices
  14.45, 22.1479333333333, 2.4,           !- X,Y,Z Vertex 1 {m}
  14.45, 21.7494, 2.4,                    !- X,Y,Z Vertex 2 {m}
  14, 21.7494, 2.4,                       !- X,Y,Z Vertex 3 {m}
  14, 22.1479333333333, 2.4;              !- X,Y,Z Vertex 4 {m}

Shading:Building:Detailed,
  Shade_0e703a1b,                         !- Name
  ,                                       !- Transmittance Schedule Name
  ,                                       !- Number of Vertices
  5.95, 56.274, 2.4,                      !- X,Y,Z Vertex 1 {m}
  5.95, 55.824, 2.4,                      !- X,Y,Z Vertex 2 {m}
  4.55, 55.824, 2.4,                      !- X,Y,Z Vertex 3 {m}
  4.55, 56.274, 2.4;                      !- X,Y,Z Vertex 4 {m}

Shading:Building:Detailed,
  Shade_0ecd954f,                         !- Name
  ,                                       !- Transmittance Schedule Name
  ,                                       !- Number of Vertices
  14, 38.0892666666666, 8.4,              !- X,Y,Z Vertex 1 {m}
  14, 38.0892666666666, 7.4,              !- X,Y,Z Vertex 2 {m}
  14.45, 38.0892666666666, 7.4,           !- X,Y,Z Vertex 3 {m}
  14.45, 38.0892666666666, 8.4;           !- X,Y,Z Vertex 4 {m}

Shading:Building:Detailed,
  Shade_10a63358,                         !- Name
  ,                                       !- Transmittance Schedule Name
  ,                                       !- Number of Vertices
  0, 24.5226857142857, 5.4,               !- X,Y,Z Vertex 1 {m}
  0, 24.5226857142857, 4.4,               !- X,Y,Z Vertex 2 {m}
  -0.45, 24.5226857142857, 4.4,           !- X,Y,Z Vertex 3 {m}
  -0.45, 24.5226857142857, 5.4;           !- X,Y,Z Vertex 4 {m}

Shading:Building:Detailed,
  Shade_1109a0af,                         !- Name
  ,                                       !- Transmittance Schedule Name
  ,                                       !- Number of Vertices
  7.17869999999998, 0, 2.4,               !- X,Y,Z Vertex 1 {m}
  7.17869999999998, -0.45, 2.4,           !- X,Y,Z Vertex 2 {m}
  4.78579999999998, -0.45, 2.4,           !- X,Y,Z Vertex 3 {m}
  4.78579999999998, 0, 2.4;               !- X,Y,Z Vertex 4 {m}

Shading:Building:Detailed,
  Shade_112ef320,                         !- Name
  ,                                       !- Transmittance Schedule Name
  ,                                       !- Number of Vertices
  23.1313666666667, 0, 5.4,               !- X,Y,Z Vertex 1 {m}
  23.1313666666667, 0, 4.4,               !- X,Y,Z Vertex 2 {m}
  23.1313666666667, -0.45, 4.4,           !- X,Y,Z Vertex 3 {m}
  23.1313666666667, -0.45, 5.4;           !- X,Y,Z Vertex 4 {m}

Shading:Building:Detailed,
  Shade_11ec0968,                         !- Name
  ,                                       !- Transmittance Schedule Name
  ,                                       !- Number of Vertices
  35.0958666666667, 0, 8.4,               !- X,Y,Z Vertex 1 {m}
  35.0958666666667, 0, 7.4,               !- X,Y,Z Vertex 2 {m}
  35.0958666666667, -0.45, 7.4,           !- X,Y,Z Vertex 3 {m}
  35.0958666666667, -0.45, 8.4;           !- X,Y,Z Vertex 4 {m}

Shading:Building:Detailed,
  Shade_11f61cd6,                         !- Name