
Version,
  22.2;                                   !- Version Identifier

Timestep,
  6;                                      !- Number of Timesteps per Hour

LifeCycleCost:Parameters,
  Life Cycle Cost Parameters,             !- Name
  EndOfYear,                              !- Discounting Convention
  ConstantDollar,                         !- Inflation Approach
  0.03,                                   !- Real Discount Rate
  ,                                       !- Nominal Discount Rate
  ,                                       !- Inflation
  ,                                       !- Base Date Month
  2011,                                   !- Base Date Year
  ,                                       !- Service Date Month
  2011,                                   !- Service Date Year
  25,                                     !- Length of Study Period in Years
  ,                                       !- Tax rate
  None;                                   !- Depreciation Method

LifeCycleCost:UsePriceEscalation,
  U.S. Avg  Commercial-Electricity,       !- Name
  Electricity,                            !- Resource
  2011,                                   !- Escalation Start Year
  January,                                !- Escalation Start Month
  0.9838,                                 !- Year Escalation 1
  0.9730,                                 !- Year Escalation 2
  0.9632,                                 !- Year Escalation 3
  0.9611,                                 !- Year Escalation 4
  0.9571,                                 !- Year Escalation 5
  0.9553,                                 !- Year Escalation 6
  0.9539,                                 !- Year Escalation 7
  0.9521,                                 !- Year Escalation 8
  0.9546,                                 !- Year Escalation 9
  0.9550,                                 !- Year Escalation 10
  0.9553,                                 !- Year Escalation 11
  0.9564,                                 !- Year Escalation 12
  0.9575,                                 !- Year Escalation 13
  0.9596,                                 !- Year Escalation 14
  0.9618,                                 !- Year Escalation 15
  0.9614,                                 !- Year Escalation 16
  0.9618,                                 !- Year Escalation 17
  0.9618,                                 !- Year Escalation 18
  0.9593,                                 !- Year Escalation 19
  0.9589,                                 !- Year Escalation 20
  0.9607,                                 !- Year Escalation 21
  0.9625,                                 !- Year Escalation 22
  0.9650,                                 !- Year Escalation 23
  0.9708,                                 !- Year Escalation 24
  0.9751,                                 !- Year Escalation 25
  0.9762,                                 !- Year Escalation 26
  0.9766,                                 !- Year Escalation 27
  0.9766,                                 !- Year Escalation 28
  0.9769,                                 !- Year Escalation 29
  0.9773;                                 !- Year Escalation 30

LifeCycleCost:UsePriceEscalation,
  U.S. Avg  Commercial-Distillate Oil,    !- Name
  FuelOilNo1,                             !- Resource
  2011,                                   !- Escalation Start Year
  January,                                !- Escalation Start Month
  0.9714,                                 !- Year Escalation 1
  0.9730,                                 !- Year Escalation 2
  0.9942,                                 !- Year Escalation 3
  1.0164,                                 !- Year Escalation 4
  1.0541,                                 !- Year Escalation 5
  1.0928,                                 !- Year Escalation 6
  1.1267,                                 !- Year Escalation 7
  1.1580,                                 !- Year Escalation 8
  1.1792,                                 !- Year Escalation 9
  1.1967,                                 !- Year Escalation 10
  1.2200,                                 !- Year Escalation 11
  1.2333,                                 !- Year Escalation 12
  1.2566,                                 !- Year Escalation 13
  1.2709,                                 !- Year Escalation 14
  1.2826,                                 !- Year Escalation 15
  1.2985,                                 !- Year Escalation 16
  1.3102,                                 !- Year Escalation 17
  1.3250,                                 !- Year Escalation 18
  1.3261,                                 !- Year Escalation 19
  1.3282,                                 !- Year Escalation 20
  1.3324,                                 !- Year Escalation 21
  1.3356,                                 !- Year Escalation 22
  1.3431,                                 !- Year Escalation 23
  1.3510,                                 !- Year Escalation 24
  1.3568,                                 !- Year Escalation 25
  1.3606,                                 !- Year Escalation 26
  1.3637,                                 !- Year Escalation 27
  1.3674,                                 !- Year Escalation 28
  1.3706,                                 !- Year Escalation 29
  1.3743;                                 !- Year Escalation 30

LifeCycleCost:UsePriceEscalation,
  U.S. Avg  Commercial-Residual Oil,      !- Name
  FuelOilNo2,                             !- Resource
  2011,                                   !- Escalation Start Year
  January,                                !- Escalation Start Month
  0.8469,                                 !- Year Escalation 1
  0.8257,                                 !- Year Escalation 2
  0.8681,                                 !- Year Escalation 3
  0.8988,                                 !- Year Escalation 4
  0.9289,                                 !- Year Escalation 5
  0.9604,                                 !- Year Escalation 6
  0.9897,                                 !- Year Escalation 7
  1.0075,                                 !- Year Escalation 8
  1.0314,                                 !- Year Escalation 9
  1.0554,                                 !- Year Escalation 10
  1.0861,                                 !- Year Escalation 11
  1.1278,                                 !- Year Escalation 12
  1.1497,                                 !- Year Escalation 13
  1.1620,                                 !- Year Escalation 14
  1.1743,                                 !- Year Escalation 15
  1.1852,                                 !- Year Escalation 16
  1.1948,                                 !- Year Escalation 17
  1.2037,                                 !- Year Escalation 18
  1.2071,                                 !- Year Escalation 19
  1.2119,                                 !- Year Escalation 20
  1.2139,                                 !- Year Escalation 21
  1.2194,                                 !- Year Escalation 22
  1.2276,                                 !- Year Escalation 23
  1.2365,                                 !- Year Escalation 24
  1.2420,                                 !- Year Escalation 25
  1.2461,                                 !- Year Escalation 26
  1.2509,                                 !- Year Escalation 27
  1.2550,                                 !- Year Escalation 28
  1.2591,                                 !- Year Escalation 29
  1.2638;                                 !- Year Escalation 30

LifeCycleCost:UsePriceEscalation,
  U.S. Avg  Commercial-Natural gas,       !- Name
  NaturalGas,                             !- Resource
  2011,                                   !- Escalation Start Year
  January,                                !- Escalation Start Month
  0.9823,                                 !- Year Escalation 1
  0.9557,                                 !- Year Escalation 2
  0.9279,                                 !- Year Escalation 3
  0.9257,                                 !- Year Escalation 4
  0.9346,                                 !- Year Escalation 5
  0.9412,                                 !- Year Escalation 6
  0.9512,                                 !- Year Escalation 7
  0.9645,                                 !- Year Escalation 8
  0.9856,                                 !- Year Escalation 9
  1.0067,                                 !- Year Escalation 10
  1.0222,                                 !- Year Escalation 11
  1.0410,                                 !- Year Escalation 12
  1.0610,                                 !- Year Escalation 13
  1.0787,                                 !- Year Escalation 14
  1.0942,                                 !- Year Escalation 15
  1.1098,                                 !- Year Escalation 16
  1.1220,                                 !- Year Escalation 17
  1.1308,                                 !- Year Escalation 18
  1.1386,                                 !- Year Escalation 19
  1.1486,                                 !- Year Escalation 20
  1.1619,                                 !- Year Escalation 21
  1.1763,                                 !- Year Escalation 22
  1.1918,                                 !- Year Escalation 23
  1.2118,                                 !- Year Escalation 24
  1.2284,                                 !- Year Escalation 25
  1.2439,                                 !- Year Escalation 26
  1.2605,                                 !- Year Escalation 27
  1.2772,                                 !- Year Escalation 28
  1.2938,                                 !- Year Escalation 29
  1.3115;                                 !- Year Escalation 30

LifeCycleCost:UsePriceEscalation,
  U.S. Avg  Commercial-Coal,              !- Name
  Coal,                                   !- Resource
  2011,                                   !- Escalation Start Year
  January,                                !- Escalation Start Month
  0.9970,                                 !- Year Escalation 1
  1.0089,                                 !- Year Escalation 2
  1.0089,                                 !- Year Escalation 3
  0.9941,                                 !- Year Escalation 4
  0.9941,                                 !- Year Escalation 5
  1.0000,                                 !- Year Escalation 6
  1.0030,                                 !- Year Escalation 7
  1.0059,                                 !- Year Escalation 8
  1.0089,                                 !- Year Escalation 9
  1.0119,                                 !- Year Escalation 10
  1.0148,                                 !- Year Escalation 11
  1.0178,                                 !- Year Escalation 12
  1.0208,                                 !- Year Escalation 13
  1.0267,                                 !- Year Escalation 14
  1.0297,                                 !- Year Escalation 15
  1.0356,                                 !- Year Escalation 16
  1.0415,                                 !- Year Escalation 17
  1.0534,                                 !- Year Escalation 18
  1.0564,                                 !- Year Escalation 19
  1.0593,                                 !- Year Escalation 20
  1.0653,                                 !- Year Escalation 21
  1.0712,                                 !- Year Escalation 22
  1.0742,                                 !- Year Escalation 23
  1.0801,                                 !- Year Escalation 24
  1.0831,                                 !- Year Escalation 25
  1.0831,                                 !- Year Escalation 26
  1.0861,                                 !- Year Escalation 27
  1.0890,                                 !- Year Escalation 28
  1.0920,                                 !- Year Escalation 29
  1.0950;                                 !- Year Escalation 30

Building,
  Parametric_sim,                         !- Name
  0,                                      !- North Axis {deg}
  City,                                   !- Terrain
  ,                                       !- Loads Convergence Tolerance Value {W}
  ,                                       !- Temperature Convergence Tolerance Value {deltaC}
  FullExteriorWithReflections,            !- Solar Distribution
  ,                                       !- Maximum Number of Warmup Days
  ;                                       !- Minimum Number of Warmup Days

Shading:Building:Detailed,
  Shade_011d8149,                         !- Name
  ,                                       !- Transmittance Schedule Name
  ,                                       !- Number of Vertices
  68.5964666666667, -0.45, 8.4,           !- X,Y,Z Vertex 1 {m}
  68.5964666666667, -0.45, 7.4,           !- X,Y,Z Vertex 2 {m}
  68.5964666666667, 0, 7.4,               !- X,Y,Z Vertex 3 {m}
  68.5964666666667, 0, 8.4;               !- X,Y,Z Vertex 4 {m}

Shading:Building:Detailed,
  Shade_01622f0f,                         !- Name
  ,                                       !- Transmittance Schedule Name
  ,                                       !- Number of Vertices
  27.6212214285714, 8, 5.4,               !- X,Y,Z Vertex 1 {m}
  27.6212214285714, 8, 4.4,               !- X,Y,Z Vertex 2 {m}
  27.6212214285714, 8.45, 4.4,            !- X,Y,Z Vertex 3 {m}
  27.6212214285714, 8.45, 5.4;            !- X,Y,Z Vertex 4 {m}

Shading:Building:Detailed,
  Shade_025d478d,                         !- Name
  ,                                       !- Transmittance Schedule Name
  ,                                       !- Number of Vertices
  -0.45, 20.126045, 8.4,                  !- X,Y,Z Vertex 1 {m}
  -0.45, 20.126045, 7.4,                  !- X,Y,Z Vertex 2 {m}
  0, 20.126045, 7.4,                      !- X,Y,Z Vertex 3 {m}
  0, 20.126045, 8.4;                      !- X,Y,Z Vertex 4 {m}

Shading:Building:Detailed,
  Shade_02fd4ae2,                         !- Name
  ,                                       !- Transmittance Schedule Name
  ,                                       !- Number of Vertices
  11.1668666666666, 0, 2.4,               !- X,Y,Z Vertex 1 {m}
  11.1668666666666, -0.45, 2.4,           !- X,Y,Z Vertex 2 {m}
  8.77396666666665, -0.45, 2.4,           !- X,Y,Z Vertex 3 {m}
  8.77396666666665, 0, 2.4;               !- X,Y,Z Vertex 4 {m}

Shading:Building:Detailed,
  Shade_0361f6bb,                         !- Name
  ,                                       !- Transmittance Schedule Name
  ,                                       !- Number of Vertices
  44.1317928571428, 8, 5.4,               !- X,Y,Z Vertex 1 {m}
  44.1317928571428, 8, 4.4,               !- X,Y,Z Vertex 2 {m}
  44.1317928571428, 8.45, 4.4,            !- X,Y,Z Vertex 3 {m}
  44.1317928571428, 8.45, 5.4;            !- X,Y,Z Vertex 4 {m}

Shading:Building:Detailed,
  Shade_042c04a9,                         !- Name
  ,                                       !- Transmittance Schedule Name
  ,                                       !- Number of Vertices
  47.0603666666667, 0, 5.4,               !- X,Y,Z Vertex 1 {m}
  47.0603666666667, -0.45, 5.4,           !- X,Y,Z Vertex 2 {m}
  44.6674666666667, -0.45, 5.4,           !- X,Y,Z Vertex 3 {m}
  44.6674666666667, 0, 5.4;               !- X,Y,Z Vertex 4 {m}

Shading:Building:Detailed,
  Shade_04735433,                         !- Name
  ,                                       !- Transmittance Schedule Name
  ,                                       !- Number of Vertices
  8.77396666666665, -0.45, 5.4,           !- X,Y,Z Vertex 1 {m}
  8.77396666666665, -0.45, 4.4,           !- X,Y,Z Vertex 2 {m}
  8.77396666666665, 0, 4.4,               !- X,Y,Z Vertex 3 {m}
  8.77396666666665, 0, 5.4;               !- X,Y,Z Vertex 4 {m}

Shading:Building:Detailed,
  Shade_051a033e,                         !- Name
  ,                                       !- Transmittance Schedule Name
  ,                                       !- Number of Vertices
  14, 18.67716875, 8.4,                   !- X,Y,Z Vertex 1 {m}
  14, 18.67716875, 7.4,                   !- X,Y,Z Vertex 2 {m}
  14.45, 18.67716875, 7.4,                !- X,Y,Z Vertex 3 {m}
  14.45, 18.67716875, 8.4;                !- X,Y,Z Vertex 4 {m}

Shading:Building:Detailed,
  Shade_05688d4e,                         !- Name
  ,                                       !- Transmittance Schedule Name
  ,                                       !- Number of Vertices
  64.6083, -0.45, 8.4,                    !- X,Y,Z Vertex 1 {m}
  64.6083, -0.45, 7.4,                    !- X,Y,Z Vertex 2 {m}
  64.6083, 0, 7.4,                        !- X,Y,Z Vertex 3 {m}
  64.6083, 0, 8.4;                        !- X,Y,Z Vertex 4 {m}

Shading:Building:Detailed,
  Shade_058c5a89,                         !- Name
  ,                                       !- Transmittance Schedule Name
  ,                                       !- Number of Vertices
  60.6201333333333, -0.45, 5.4,           !- X,Y,Z Vertex 1 {m}
  60.6201333333333, -0.45, 4.4,           !- X,Y,Z Vertex 2 {m}
  60.6201333333333, 0, 4.4,               !- X,Y,Z Vertex 3 {m}
  60.6201333333333, 0, 5.4;               !- X,Y,Z Vertex 4 {m}

Shading:Building:Detailed,
  Shade_05c15f27,                         !- Name
  ,                                       !- Transmittance Schedule Name
  ,                                       !- Number of Vertices
  64.7700071428571, 8, 2.4,               !- X,Y,Z Vertex 1 {m}
  64.7700071428571, 8, 1.4,               !- X,Y,Z Vertex 2 {m}
  64.7700071428571, 8.45, 1.4,            !- X,Y,Z Vertex 3 {m}
  64.7700071428571, 8.45, 2.4;            !- X,Y,Z Vertex 4 {m}

Shading:Building:Detailed,
  Shade_05c9fd88,                         !- Name
  ,                                       !- Transmittance Schedule Name
  ,                                       !- Number of Vertices
  70.5487071428571, 8.45, 5.4,            !- X,Y,Z Vertex 1 {m}
  70.5487071428571, 8.45, 4.4,            !- X,Y,Z Vertex 2 {m}
  70.5487071428571, 8, 4.4,               !- X,Y,Z Vertex 3 {m}
  70.5487071428571, 8, 5.4;               !- X,Y,Z Vertex 4 {m}

Shading:Building:Detailed,
  Shade_06c86b80,                         !- Name
  ,                                       !- Transmittance Schedule Name
  ,                                       !- Number of Vertices
  60.6423642857143, 8, 5.4,               !- X,Y,Z Vertex 1 {m}
  60.6423642857143, 8, 4.4,               !- X,Y,Z Vertex 2 {m}
  60.6423642857143, 8.45, 4.4,            !- X,Y,Z Vertex 3 {m}
  60.6423642857143, 8.45, 5.4;            !- X,Y,Z Vertex 4 {m}

Shading:Building:Detailed,
  Shade_06e8c2a4,                         !- Name
  ,                                       !- Transmittance Schedule Name
  ,                                       !- Number of Vertices
  71.787, 2.2, 2.4,                       !- X,Y,Z Vertex 1 {m}
  71.787, 2.2, 1.4,                       !- X,Y,Z Vertex 2 {m}
  72.237, 2.2, 1.4,                       !- X,Y,Z Vertex 3 {m}
  72.237, 2.2, 2.4;                       !- X,Y,Z Vertex 4 {m}

Shading:Building:Detailed,
  Shade_0713e95a,                         !- Name
  ,                                       !- Transmittance Schedule Name
  ,                                       !- Number of Vertices
  14.45, 18.25845625, 8.4,                !- X,Y,Z Vertex 1 {m}
  14.45, 18.25845625, 7.4,                !- X,Y,Z Vertex 2 {m}
  14, 18.25845625, 7.4,                   !- X,Y,Z Vertex 3 {m}
  14, 18.25845625, 8.4;                   !- X,Y,Z Vertex 4 {m}

Shading:Building:Detailed,
  Shade_071816d3,                         !- Name
  ,                                       !- Transmittance Schedule Name
  ,                                       !- Number of Vertices
  27.6212214285714, 8, 2.4,               !- X,Y,Z Vertex 1 {m}
  27.6212214285714, 8, 1.4,               !- X,Y,Z Vertex 2 {m}
  27.6212214285714, 8.45, 1.4,            !- X,Y,Z Vertex 3 {m}
  27.6212214285714, 8.45, 2.4;            !- X,Y,Z Vertex 4 {m}

Shading:Building:Detailed,
  Shade_079ef1a3,                         !- Name
  ,                                       !- Transmittance Schedule Name
  ,                                       !- Number of Vertices
  14, 35.42566875, 2.4,                   !- X,Y,Z Vertex 1 {m}
  14, 35.42566875, 1.4,                   !- X,Y,Z Vertex 2 {m}
  14.45, 35.42566875, 1.4,                !- X,Y,Z Vertex 3 {m}
  14.45, 35.42566875, 2.4;                !- X,Y,Z Vertex 4 {m}

Shading:Building:Detailed,
  Shade_08004cb6,                         !- Name
  ,                                       !- Transmittance Schedule Name
  ,                                       !- Number of Vertices
  58.1657785714286, 8.45, 5.4,            !- X,Y,Z Vertex 1 {m}
  58.1657785714286, 8.45, 4.4,            !- X,Y,Z Vertex 2 {m}
  58.1657785714286, 8, 4.4,               !- X,Y,Z Vertex 3 {m}
  58.1657785714286, 8, 5.4;               !- X,Y,Z Vertex 4 {m}

Shading:Building:Detailed,
  Shade_0841d866,                         !- Name
  ,                                       !- Transmittance Schedule Name
  ,                                       !- Number of Vertices
  0, 29.670355, 8.4,                      !- X,Y,Z Vertex 1 {m}
  0, 29.670355, 7.4,                      !- X,Y,Z Vertex 2 {m}
  -0.45, 29.670355, 7.4,                  !- X,Y,Z Vertex 3 {m}
  -0.45, 29.670355, 8.4;                  !- X,Y,Z Vertex 4 {m}

Shading:Building:Detailed,
  Shade_08a360e7,                         !- Name
  ,                                       !- Transmittance Schedule Name
  ,                                       !- Number of Vertices
  12.95, 41.947, 5.4,                     !- X,Y,Z Vertex 1 {m}
  12.95, 41.947, 4.4,                     !- X,Y,Z Vertex 2 {m}
  12.95, 41.497, 4.4,                     !- X,Y,Z Vertex 3 {m}
  12.95, 41.497, 5.4;                     !- X,Y,Z Vertex 4 {m}

Shading:Building:Detailed,
  Shade_08b587b0,                         !- Name
  ,                                       !- Transmittance Schedule Name
  ,                                       !- Number of Vertices
  14.45, 10.30291875, 8.4,                !- X,Y,Z Vertex 1 {m}
  14.45, 9.88420625, 8.4,                 !- X,Y,Z Vertex 2 {m}
  14, 9.88420625, 8.4,                    !- X,Y,Z Vertex 3 {m}
  14, 10.30291875, 8.4;                   !- X,Y,Z Vertex 4 {m}

Shading:Building:Detailed,
  Shade_0a181454,                         !- Name
  ,                                       !- Transmittance Schedule Name
  ,                                       !- Number of Vertices
  14.45, 18.67716875, 8.4,                !- X,Y,Z Vertex 1 {m}
  14.45, 18.25845625, 8.4,                !- X,Y,Z Vertex 2 {m}
  14, 18.25845625, 8.4,                   !- X,Y,Z Vertex 3 {m}
  14, 18.67716875, 8.4;                   !- X,Y,Z Vertex 4 {m}

Shading:Building:Detailed,
  Shade_0a250b6d,                         !- Name
  ,                                       !- Transmittance Schedule Name
  ,                                       !- Number of Vertices
  23.4935785714286, 8, 5.4,               !- X,Y,Z Vertex 1 {m}
  23.4935785714286, 8, 4.4,               !- X,Y,Z Vertex 2 {m}
  23.4935785714286, 8.45, 4.4,            !- X,Y,Z Vertex 3 {m}
  23.4935785714286, 8.45, 5.4;            !- X,Y,Z Vertex 4 {m}

Shading:Building:Detailed,
  Shade_0b564b98,                         !- Name
  ,                                       !- Transmittance Schedule Name
  ,                                       !- Number of Vertices
  0, 15.976345, 5.4,                      !- X,Y,Z Vertex 1 {m}
  0, 13.071555, 5.4,                      !- X,Y,Z Vertex 2 {m}
  -0.45, 13.071555, 5.4,                  !- X,Y,Z Vertex 3 {m}
  -0.45, 15.976345, 5.4;                  !- X,Y,Z Vertex 4 {m}

Shading:Building:Detailed,
  Shade_0ce239ed,                         !- Name
  ,                                       !- Transmittance Schedule Name
  ,                                       !- Number of Vertices
  55.0367, 0, 2.4,                        !- X,Y,Z Vertex 1 {m}
  55.0367, 0, 1.4,                        !- X,Y,Z Vertex 2 {m}
  55.0367, -0.45, 1.4,                    !- X,Y,Z Vertex 3 {m}
  55.0367, -0.45, 2.4;                    !- X,Y,Z Vertex 4 {m}

Shading:Building:Detailed,
  Shade_0d147932,                         !- Name
  ,                                       !- Transmittance Schedule Name
  ,                                       !- Number of Vertices
  66.4210642857143, 8.45, 2.4,            !- X,Y,Z Vertex 1 {m}
  66.4210642857143, 8.45, 1.4,            !- X,Y,Z Vertex 2 {m}
  66.4210642857143, 8, 1.4,               !- X,Y,Z Vertex 3 {m}
  66.4210642857143, 8, 2.4;               !- X,Y,Z Vertex 4 {m}

Shading:Building:Detailed,
  Shade_0d2da457,                         !- Name
  ,                                       !- Transmittance Schedule Name
  ,                                       !- Number of Vertices
  -0.45, 28.425445, 5.4,                  !- X,Y,Z Vertex 1 {m}
  -0.45, 28.425445, 4.4,                  !- X,Y,Z Vertex 2 {m}
  0, 28.425445, 4.4,                      !- X,Y,Z Vertex 3 {m}
  0, 28.425445, 5.4;                      !- X,Y,Z Vertex 4 {m}

Shading:Building:Detailed,
  Shade_0ec8fb5a,                         !- Name
  ,                                       !- Transmittance Schedule Name
  ,                                       !- Number of Vertices
  -0.45, 40.874545, 5.4,                  !- X,Y,Z Vertex 1 {m}
  -0.45, 40.874545, 4.4,                  !- X,Y,Z Vertex 2 {m}
  0, 40.874545, 4.4,                      !- X,Y,Z Vertex 3 {m}
  0, 40.874545, 5.4;                      !- X,Y,Z Vertex 4 {m}

Shading:Building:Detailed,
  Shade_0f44c1a9,                         !- Name
  ,                                       !- Transmittance Schedule Name
  ,                                       !- Number of Vertices
  68.89765, 8, 8.4,                       !- X,Y,Z Vertex 1 {m}
  68.89765, 8, 7.4,                       !- X,Y,Z Vertex 2 {m}
  68.89765, 8.45, 7.4,                    !- X,Y,Z Vertex 3 {m}
  68.89765, 8.45, 8.4;                    !- X,Y,Z Vertex 4 {m}

Shading:Building:Detailed,
  Shade_0f7ddd9f,                         !- Name
  ,                                       !- Transmittance Schedule Name
  ,                                       !- Number of Vertices
  14.45, 14.49004375, 2.4,                !- X,Y,Z Vertex 1 {m}
  14.45, 14.07133125, 2.4,                !- X,Y,Z Vertex 2 {m}
  14, 14.07133125, 2.4,                   !- X,Y,Z Vertex 3 {m}
  14, 14.49004375, 2.4;                   !- X,Y,Z Vertex 4 {m}

Shading:Building:Detailed,
  Shade_0fb590ee,                         !- Name
  ,                                       !- Transmittance Schedule Name
  ,                                       !- Number of Vertices
  33.3999214285714, 8.45, 2.4,            !- X,Y,Z Vertex 1 {m}
  33.3999214285714, 8.45, 1.4,            !- X,Y,Z Vertex 2 {m}
  33.3999214285714, 8, 1.4,               !- X,Y,Z Vertex 3 {m}
  33.3999214285714, 8, 2.4;               !- X,Y,Z Vertex 4 {m}

Shading:Building:Detailed,
  Shade_101a4738,                         !- Name
  ,                                       !- Transmittance Schedule Name
  ,                                       !- Number of Vertices
  0, 7.67694500000001, 8.4,               !- X,Y,Z Vertex 1 {m}
  0, 4.77215500000001, 8.4,               !- X,Y,Z Vertex 2 {m}
  -0.45, 4.77215500000001, 8.4,           !- X,Y,Z Vertex 3 {m}
  -0.45, 7.67694500000001, 8.4;           !- X,Y,Z Vertex 4 {m}

Shading:Building:Detailed,
  Shade_10208017,                         !- Name
  ,                                       !- Transmittance Schedule Name
  ,                                       !- Number of Vertices
  49.9104928571428, 8.45, 5.4,            !- X,Y,Z Vertex 1 {m}
  49.9104928571428, 8.45, 4.4,            !- X,Y,Z Vertex 2 {m}
  49.9104928571428, 8, 4.4,               !- X,Y,Z Vertex 3 {m}
  49.9104928571428, 8, 5.4;               !- X,Y,Z Vertex 4 {m}

Shading:Building:Detailed,
  Shade_109699ec,                         !- Name
  ,                                       !- Transmittance Schedule Name
  ,                                       !- Number of Vertices
  72.237, 1.8, 5.4,                       !- X,Y,Z Vertex 1 {m}
  72.237, 1.8, 4.4,                       !- X,Y,Z Vertex 2 {m}
  71.787, 1.8, 4.4,                       !- X,Y,Z Vertex 3 {m}
  71.787, 1.8, 5.4;                       !- X,Y,Z Vertex 4 {m}

Shading:Building:Detailed,
  Shade_1125b677,                         !- Name
  ,                                       !- Transmittance Schedule Name
  ,                                       !- Number of Vertices
  25.1446357142857, 8.45, 8.4,            !- X,Y,Z Vertex 1 {m}
  25.1446357142857, 8, 8.4,               !- X,Y,Z Vertex 2 {m}
  23.4935785714286, 8, 8.4,               !- X,Y,Z Vertex 3 {m}
  23.4935785714286, 8.45, 8.4;            !- X,Y,Z Vertex 4 {m}

Shading:Building:Detailed,
  Shade_131d44c6,                         !- Name
  ,                                       !- Transmittance Schedule Name
  ,                                       !- Number of Vertices
  51.0485333333333, 0, 2.4,               !- X,Y,Z Vertex 1 {m}
  51.0485333333333, 0, 1.4,               !- X,Y,Z Vertex 2 {m}
  51.0485333333333, -0.45, 1.4,           !- X,Y,Z Vertex 3 {m}
  51.0485333333333, -0.45, 2.4;           !- X,Y,Z Vertex 4 {m}

Shading:Building:Detailed,
  Shade_141183e4,                         !- Name
  ,                                       !- Transmittance Schedule Name
  ,                                       !- Number of Vertices
  7.17869999999998, 0, 5.4,               !- X,Y,Z Vertex 1 {m}
  7.17869999999998, -0.45, 5.4,           !- X,Y,Z Vertex 2 {m}
  4.78579999999998, -0.45, 5.4,           !- X,Y,Z Vertex 3 {m}
  4.78579999999998, 0, 5.4;               !- X,Y,Z Vertex 4 {m}

Shading:Building:Detailed,
  Shade_141ab6c1,                         !- Name